

        *** GPGPU-Sim Simulator Version 4.0.0  [build gpgpu-sim_git-commit-fdf4e102d56c519764ca3e700bcd06f5599d5900_modified_4.0] ***


GPGPU-Sim PTX: simulation mode 0 (can change with PTX_SIM_MODE_FUNC environment variable:
               1=functional simulation only, 0=detailed performance simulator)
GPGPU-Sim PTX: overriding embedded ptx with ptx file (PTX_SIM_USE_PTX_FILE is set)
GPGPU-Sim: Configuration options:

-save_embedded_ptx                      0 # saves ptx files embedded in binary as <n>.ptx
-keep                                   0 # keep intermediate files created by GPGPU-Sim when interfacing with external programs
-gpgpu_ptx_save_converted_ptxplus                    0 # Saved converted ptxplus to a file
-gpgpu_occupancy_sm_number                   20 # The SM number to pass to ptxas when getting register usage for computing GPU occupancy. This parameter is required in the config.
-ptx_opcode_latency_int      4,13,4,5,145,32 # Opcode latencies for integers <ADD,MAX,MUL,MAD,DIV,SHFL>Default 1,1,19,25,145,32
-ptx_opcode_latency_fp          4,13,4,5,39 # Opcode latencies for single precision floating points <ADD,MAX,MUL,MAD,DIV>Default 1,1,1,1,30
-ptx_opcode_latency_dp         8,19,8,8,330 # Opcode latencies for double precision floating points <ADD,MAX,MUL,MAD,DIV>Default 8,8,8,8,335
-ptx_opcode_latency_sfu                    8 # Opcode latencies for SFU instructionsDefault 8
-ptx_opcode_latency_tesnor                   64 # Opcode latencies for Tensor instructionsDefault 64
-ptx_opcode_initiation_int          1,2,2,1,8,4 # Opcode initiation intervals for integers <ADD,MAX,MUL,MAD,DIV,SHFL>Default 1,1,4,4,32,4
-ptx_opcode_initiation_fp            1,2,1,1,4 # Opcode initiation intervals for single precision floating points <ADD,MAX,MUL,MAD,DIV>Default 1,1,1,1,5
-ptx_opcode_initiation_dp         8,16,8,8,130 # Opcode initiation intervals for double precision floating points <ADD,MAX,MUL,MAD,DIV>Default 8,8,8,8,130
-ptx_opcode_initiation_sfu                    8 # Opcode initiation intervals for sfu instructionsDefault 8
-ptx_opcode_initiation_tensor                   64 # Opcode initiation intervals for tensor instructionsDefault 64
-cdp_latency         7200,8000,100,12000,1600 # CDP API latency <cudaStreamCreateWithFlags, cudaGetParameterBufferV2_init_perWarp, cudaGetParameterBufferV2_perKernel, cudaLaunchDeviceV2_init_perWarp, cudaLaunchDevicV2_perKernel>Default 7200,8000,100,12000,1600
-network_mode                           1 # Interconnection network mode
-inter_config_file   config_fermi_islip.icnt # Interconnection network config file
-icnt_in_buffer_limit                   64 # in_buffer_limit
-icnt_out_buffer_limit                   64 # out_buffer_limit
-icnt_subnets                           2 # subnets
-icnt_arbiter_algo                      1 # arbiter_algo
-icnt_verbose                           0 # inct_verbose
-icnt_grant_cycles                      1 # grant_cycles
-gpgpu_ptx_use_cuobjdump                    1 # Use cuobjdump to extract ptx and sass from binaries
-gpgpu_experimental_lib_support                    0 # Try to extract code from cuda libraries [Broken because of unknown cudaGetExportTable]
-checkpoint_option                      0 #  checkpointing flag (0 = no checkpoint)
-checkpoint_kernel                      1 #  checkpointing during execution of which kernel (1- 1st kernel)
-checkpoint_CTA                         0 #  checkpointing after # of CTA (< less than total CTA)
-resume_option                          0 #  resume flag (0 = no resume)
-resume_kernel                          0 #  Resume from which kernel (1= 1st kernel)
-resume_CTA                             0 #  resume from which CTA 
-checkpoint_CTA_t                       0 #  resume from which CTA 
-checkpoint_insn_Y                      0 #  resume from which CTA 
-gpgpu_ptx_convert_to_ptxplus                    0 # Convert SASS (native ISA) to ptxplus and run ptxplus
-gpgpu_ptx_force_max_capability                   20 # Force maximum compute capability
-gpgpu_ptx_inst_debug_to_file                    0 # Dump executed instructions' debug information to file
-gpgpu_ptx_inst_debug_file       inst_debug.txt # Executed instructions' debug output file
-gpgpu_ptx_inst_debug_thread_uid                    1 # Thread UID for executed instructions' debug output
-gpgpu_simd_model                       1 # 1 = post-dominator
-gpgpu_shader_core_pipeline              1536:32 # shader core pipeline config, i.e., {<nthread>:<warpsize>}
-gpgpu_tex_cache:l1  N:4:128:24,L:R:m:N:L,T:128:4,128:2 # per-shader L1 texture cache  (READ-ONLY) config  {<nsets>:<bsize>:<assoc>,<rep>:<wr>:<alloc>:<wr_alloc>,<mshr>:<N>:<merge>,<mq>:<rf>}
-gpgpu_const_cache:l1 N:64:64:2,L:R:f:N:L,S:2:32,4 # per-shader L1 constant memory cache  (READ-ONLY) config  {<nsets>:<bsize>:<assoc>,<rep>:<wr>:<alloc>:<wr_alloc>,<mshr>:<N>:<merge>,<mq>} 
-gpgpu_cache:il1     N:4:128:4,L:R:f:N:L,S:2:32,4 # shader L1 instruction cache config  {<nsets>:<bsize>:<assoc>,<rep>:<wr>:<alloc>:<wr_alloc>,<mshr>:<N>:<merge>,<mq>} 
-gpgpu_cache:dl1     N:32:128:4,L:L:m:N:H,S:64:8,8 # per-shader L1 data cache config  {<nsets>:<bsize>:<assoc>,<rep>:<wr>:<alloc>:<wr_alloc>,<mshr>:<N>:<merge>,<mq> | none}
-gpgpu_l1_banks                         1 # The number of L1 cache banks
-gpgpu_l1_banks_byte_interleaving                   32 # l1 banks byte interleaving granularity
-gpgpu_l1_banks_hashing_function                    0 # l1 banks hashing function
-gpgpu_l1_latency                      35 # L1 Hit Latency
-gpgpu_smem_latency                    26 # smem Latency
-gpgpu_cache:dl1PrefL1                 none # per-shader L1 data cache config  {<nsets>:<bsize>:<assoc>,<rep>:<wr>:<alloc>:<wr_alloc>,<mshr>:<N>:<merge>,<mq> | none}
-gpgpu_cache:dl1PrefShared                 none # per-shader L1 data cache config  {<nsets>:<bsize>:<assoc>,<rep>:<wr>:<alloc>:<wr_alloc>,<mshr>:<N>:<merge>,<mq> | none}
-gpgpu_gmem_skip_L1D                    0 # global memory access skip L1D cache (implements -Xptxas -dlcm=cg, default=no skip)
-gpgpu_perfect_mem                      0 # enable perfect memory mode (no cache miss)
-n_regfile_gating_group                    4 # group of lanes that should be read/written together)
-gpgpu_clock_gated_reg_file                    0 # enable clock gated reg file for power calculations
-gpgpu_clock_gated_lanes                    0 # enable clock gated lanes for power calculations
-gpgpu_shader_registers                32768 # Number of registers per shader core. Limits number of concurrent CTAs. (default 8192)
-gpgpu_registers_per_block                 8192 # Maximum number of registers per CTA. (default 8192)
-gpgpu_ignore_resources_limitation                    0 # gpgpu_ignore_resources_limitation (default 0)
-gpgpu_shader_cta                       8 # Maximum number of concurrent CTAs in shader (default 8)
-gpgpu_num_cta_barriers                   16 # Maximum number of named barriers per CTA (default 16)
-gpgpu_n_clusters                      15 # number of processing clusters
-gpgpu_n_cores_per_cluster                    1 # number of simd cores per cluster
-gpgpu_n_cluster_ejection_buffer_size                   32 # number of packets in ejection buffer
-gpgpu_n_ldst_response_buffer_size                    2 # number of response packets in ld/st unit ejection buffer
-gpgpu_shmem_per_block                49152 # Size of shared memory per thread block or CTA (default 48kB)
-gpgpu_shmem_size                   49152 # Size of shared memory per shader core (default 16kB)
-gpgpu_adaptive_cache_config                    0 # adaptive_cache_config
-gpgpu_shmem_sizeDefault                49152 # Size of shared memory per shader core (default 16kB)
-gpgpu_shmem_size_PrefL1                16384 # Size of shared memory per shader core (default 16kB)
-gpgpu_shmem_size_PrefShared                16384 # Size of shared memory per shader core (default 16kB)
-gpgpu_shmem_num_banks                   32 # Number of banks in the shared memory in each shader core (default 16)
-gpgpu_shmem_limited_broadcast                    0 # Limit shared memory to do one broadcast per cycle (default on)
-gpgpu_shmem_warp_parts                    1 # Number of portions a warp is divided into for shared memory bank conflict check 
-gpgpu_mem_unit_ports                    1 # The number of memory transactions allowed per core cycle
-gpgpu_shmem_warp_parts                    1 # Number of portions a warp is divided into for shared memory bank conflict check 
-gpgpu_warpdistro_shader                   -1 # Specify which shader core to collect the warp size distribution from
-gpgpu_warp_issue_shader                    0 # Specify which shader core to collect the warp issue distribution from
-gpgpu_local_mem_map                    1 # Mapping from local memory space address to simulated GPU physical address space (default = enabled)
-gpgpu_num_reg_banks                   16 # Number of register banks (default = 8)
-gpgpu_reg_bank_use_warp_id                    0 # Use warp ID in mapping registers to banks (default = off)
-gpgpu_sub_core_model                    0 # Sub Core Volta/Pascal model (default = off)
-gpgpu_enable_specialized_operand_collector                    1 # enable_specialized_operand_collector
-gpgpu_operand_collector_num_units_sp                    6 # number of collector units (default = 4)
-gpgpu_operand_collector_num_units_dp                    0 # number of collector units (default = 0)
-gpgpu_operand_collector_num_units_sfu                    8 # number of collector units (default = 4)
-gpgpu_operand_collector_num_units_int                    0 # number of collector units (default = 0)
-gpgpu_operand_collector_num_units_tensor_core                    4 # number of collector units (default = 4)
-gpgpu_operand_collector_num_units_mem                    2 # number of collector units (default = 2)
-gpgpu_operand_collector_num_units_gen                    0 # number of collector units (default = 0)
-gpgpu_operand_collector_num_in_ports_sp                    2 # number of collector unit in ports (default = 1)
-gpgpu_operand_collector_num_in_ports_dp                    0 # number of collector unit in ports (default = 0)
-gpgpu_operand_collector_num_in_ports_sfu                    1 # number of collector unit in ports (default = 1)
-gpgpu_operand_collector_num_in_ports_int                    0 # number of collector unit in ports (default = 0)
-gpgpu_operand_collector_num_in_ports_tensor_core                    1 # number of collector unit in ports (default = 1)
-gpgpu_operand_collector_num_in_ports_mem                    1 # number of collector unit in ports (default = 1)
-gpgpu_operand_collector_num_in_ports_gen                    0 # number of collector unit in ports (default = 0)
-gpgpu_operand_collector_num_out_ports_sp                    2 # number of collector unit in ports (default = 1)
-gpgpu_operand_collector_num_out_ports_dp                    0 # number of collector unit in ports (default = 0)
-gpgpu_operand_collector_num_out_ports_sfu                    1 # number of collector unit in ports (default = 1)
-gpgpu_operand_collector_num_out_ports_int                    0 # number of collector unit in ports (default = 0)
-gpgpu_operand_collector_num_out_ports_tensor_core                    1 # number of collector unit in ports (default = 1)
-gpgpu_operand_collector_num_out_ports_mem                    1 # number of collector unit in ports (default = 1)
-gpgpu_operand_collector_num_out_ports_gen                    0 # number of collector unit in ports (default = 0)
-gpgpu_coalesce_arch                   20 # Coalescing arch (GT200 = 13, Fermi = 20)
-gpgpu_num_sched_per_core                    2 # Number of warp schedulers per core
-gpgpu_max_insn_issue_per_warp                    1 # Max number of instructions that can be issued per warp in one cycle by scheduler (either 1 or 2)
-gpgpu_dual_issue_diff_exec_units                    1 # should dual issue use two different execution unit resources (Default = 1)
-gpgpu_simt_core_sim_order                    1 # Select the simulation order of cores in a cluster (0=Fix, 1=Round-Robin)
-gpgpu_pipeline_widths 2,0,0,1,1,2,0,0,1,1,2 # Pipeline widths ID_OC_SP,ID_OC_DP,ID_OC_INT,ID_OC_SFU,ID_OC_MEM,OC_EX_SP,OC_EX_DP,OC_EX_INT,OC_EX_SFU,OC_EX_MEM,EX_WB,ID_OC_TENSOR_CORE,OC_EX_TENSOR_CORE
-gpgpu_tensor_core_avail                    0 # Tensor Core Available (default=0)
-gpgpu_num_sp_units                     2 # Number of SP units (default=1)
-gpgpu_num_dp_units                     0 # Number of DP units (default=0)
-gpgpu_num_int_units                    0 # Number of INT units (default=0)
-gpgpu_num_sfu_units                    1 # Number of SF units (default=1)
-gpgpu_num_tensor_core_units                    0 # Number of tensor_core units (default=1)
-gpgpu_num_mem_units                    1 # Number if ldst units (default=1) WARNING: not hooked up to anything
-gpgpu_scheduler                      gto # Scheduler configuration: < lrr | gto | two_level_active > If two_level_active:<num_active_warps>:<inner_prioritization>:<outer_prioritization>For complete list of prioritization values see shader.h enum scheduler_prioritization_typeDefault: gto
-gpgpu_concurrent_kernel_sm                    0 # Support concurrent kernels on a SM (default = disabled)
-gpgpu_perfect_inst_const_cache                    1 # perfect inst and const cache mode, so all inst and const hits in the cache(default = disabled)
-gpgpu_inst_fetch_throughput                    1 # the number of fetched intruction per warp each cycle
-gpgpu_reg_file_port_throughput                    1 # the number ports of the register file
-specialized_unit_1         0,4,4,4,4,BRA # specialized unit config {<enabled>,<num_units>:<latency>:<initiation>,<ID_OC_SPEC>:<OC_EX_SPEC>,<NAME>}
-specialized_unit_2         0,4,4,4,4,BRA # specialized unit config {<enabled>,<num_units>:<latency>:<initiation>,<ID_OC_SPEC>:<OC_EX_SPEC>,<NAME>}
-specialized_unit_3         0,4,4,4,4,BRA # specialized unit config {<enabled>,<num_units>:<latency>:<initiation>,<ID_OC_SPEC>:<OC_EX_SPEC>,<NAME>}
-specialized_unit_4         0,4,4,4,4,BRA # specialized unit config {<enabled>,<num_units>:<latency>:<initiation>,<ID_OC_SPEC>:<OC_EX_SPEC>,<NAME>}
-specialized_unit_5         0,4,4,4,4,BRA # specialized unit config {<enabled>,<num_units>:<latency>:<initiation>,<ID_OC_SPEC>:<OC_EX_SPEC>,<NAME>}
-specialized_unit_6         0,4,4,4,4,BRA # specialized unit config {<enabled>,<num_units>:<latency>:<initiation>,<ID_OC_SPEC>:<OC_EX_SPEC>,<NAME>}
-specialized_unit_7         0,4,4,4,4,BRA # specialized unit config {<enabled>,<num_units>:<latency>:<initiation>,<ID_OC_SPEC>:<OC_EX_SPEC>,<NAME>}
-specialized_unit_8         0,4,4,4,4,BRA # specialized unit config {<enabled>,<num_units>:<latency>:<initiation>,<ID_OC_SPEC>:<OC_EX_SPEC>,<NAME>}
-gpgpu_perf_sim_memcpy                    1 # Fill the L2 cache on memcpy
-gpgpu_simple_dram_model                    0 # simple_dram_model with fixed latency and BW
-gpgpu_dram_scheduler                    1 # 0 = fifo, 1 = FR-FCFS (defaul)
-gpgpu_dram_partition_queues          64:64:64:64 # i2$:$2d:d2$:$2i
-l2_ideal                               0 # Use a ideal L2 cache that always hit
-gpgpu_cache:dl2     S:64:128:8,L:B:m:L:L,A:256:4,4:0,32 # unified banked L2 data cache config  {<nsets>:<bsize>:<assoc>,<rep>:<wr>:<alloc>:<wr_alloc>,<mshr>:<N>:<merge>,<mq>}
-gpgpu_cache:dl2_texture_only                    0 # L2 cache used for texture only
-gpgpu_n_mem                            6 # number of memory modules (e.g. memory controllers) in gpu
-gpgpu_n_sub_partition_per_mchannel                    2 # number of memory subpartition in each memory module
-gpgpu_n_mem_per_ctrlr                    2 # number of memory chips per memory controller
-gpgpu_memlatency_stat                   14 # track and display latency statistics 0x2 enables MC, 0x4 enables queue logs
-gpgpu_frfcfs_dram_sched_queue_size                   64 # 0 = unlimited (default); # entries per chip
-gpgpu_dram_return_queue_size                  116 # 0 = unlimited (default); # entries per chip
-gpgpu_dram_buswidth                    4 # default = 4 bytes (8 bytes per cycle at DDR)
-gpgpu_dram_burst_length                    8 # Burst length of each DRAM request (default = 4 data bus cycle)
-dram_data_command_freq_ratio                    4 # Frequency ratio between DRAM data bus and command bus (default = 2 times, i.e. DDR)
-gpgpu_dram_timing_opt nbk=16:CCD=2:RRD=6:RCD=12:RAS=28:RP=12:RC=40: CL=12:WL=4:CDLR=5:WR=12:nbkgrp=4:CCDL=3:RTPL=2 # DRAM timing parameters = {nbk:tCCD:tRRD:tRCD:tRAS:tRP:tRC:CL:WL:tCDLR:tWR:nbkgrp:tCCDL:tRTPL}
-gpgpu_l2_rop_latency                  120 # ROP queue latency (default 85)
-dram_latency                         100 # DRAM latency (default 30)
-dram_dual_bus_interface                    0 # dual_bus_interface (default = 0) 
-dram_bnk_indexing_policy                    0 # dram_bnk_indexing_policy (0 = normal indexing, 1 = Xoring with the higher bits) (Default = 0)
-dram_bnkgrp_indexing_policy                    1 # dram_bnkgrp_indexing_policy (0 = take higher bits, 1 = take lower bits) (Default = 0)
-dram_seperate_write_queue_enable                    0 # Seperate_Write_Queue_Enable
-dram_write_queue_size             32:28:16 # Write_Queue_Size
-dram_elimnate_rw_turnaround                    0 # elimnate_rw_turnaround i.e set tWTR and tRTW = 0
-icnt_flit_size                        40 # icnt_flit_size
-gpgpu_mem_addr_mapping dramid@8;00000000.00000000.00000000.00000000.0000RRRR.RRRRRRRR.BBBCCCCB.CCSSSSSS # mapping memory address to dram model {dramid@<start bit>;<memory address map>}
-gpgpu_mem_addr_test                    0 # run sweep test to check address mapping for aliased address
-gpgpu_mem_address_mask                    1 # 0 = old addressing mask, 1 = new addressing mask, 2 = new add. mask + flipped bank sel and chip sel bits
-gpgpu_memory_partition_indexing                    0 # 0 = no indexing, 1 = bitwise xoring, 2 = IPoly, 3 = custom indexing
-gpuwattch_xml_file  gpuwattch_gtx480.xml # GPUWattch XML file
-power_simulation_enabled                    1 # Turn on power simulator (1=On, 0=Off)
-power_per_cycle_dump                    0 # Dump detailed power output each cycle
-power_trace_enabled                    0 # produce a file for the power trace (1=On, 0=Off)
-power_trace_zlevel                     6 # Compression level of the power trace output log (0=no comp, 9=highest)
-steady_power_levels_enabled                    0 # produce a file for the steady power levels (1=On, 0=Off)
-steady_state_definition                  8:4 # allowed deviation:number of samples
-gpgpu_max_cycle                        0 # terminates gpu simulation early (0 = no limit)
-gpgpu_max_insn                         0 # terminates gpu simulation early (0 = no limit)
-gpgpu_max_cta                          0 # terminates gpu simulation early (0 = no limit)
-gpgpu_max_completed_cta                    0 # terminates gpu simulation early (0 = no limit)
-gpgpu_runtime_stat                   500 # display runtime statistics such as dram utilization {<freq>:<flag>}
-liveness_message_freq                    1 # Minimum number of seconds between simulation liveness messages (0 = always print)
-gpgpu_compute_capability_major                    2 # Major compute capability version number
-gpgpu_compute_capability_minor                    0 # Minor compute capability version number
-gpgpu_flush_l1_cache                    1 # Flush L1 cache at the end of each kernel call
-gpgpu_flush_l2_cache                    0 # Flush L2 cache at the end of each kernel call
-gpgpu_deadlock_detect                    1 # Stop the simulation at deadlock (1=on (default), 0=off)
-gpgpu_ptx_instruction_classification                    0 # if enabled will classify ptx instruction types per kernel (Max 255 kernels now)
-gpgpu_ptx_sim_mode                     0 # Select between Performance (default) or Functional simulation (1)
-gpgpu_clock_domains 700.0:700.0:700.0:924.0 # Clock Domain Frequencies in MhZ {<Core Clock>:<ICNT Clock>:<L2 Clock>:<DRAM Clock>}
-gpgpu_max_concurrent_kernel                    8 # maximum kernels that can run concurrently on GPU
-gpgpu_cflog_interval                    0 # Interval between each snapshot in control flow logger
-visualizer_enabled                     0 # Turn on visualizer output (1=On, 0=Off)
-visualizer_outputfile                 NULL # Specifies the output log file for visualizer
-visualizer_zlevel                      6 # Compression level of the visualizer output log (0=no comp, 9=highest)
-gpgpu_stack_size_limit                 1024 # GPU thread stack size
-gpgpu_heap_size_limit              8388608 # GPU malloc heap size 
-gpgpu_runtime_sync_depth_limit                    2 # GPU device runtime synchronize depth
-gpgpu_runtime_pending_launch_count_limit                 2048 # GPU device runtime pending launch count
-trace_enabled                          0 # Turn on traces
-trace_components                    none # comma seperated list of traces to enable. Complete list found in trace_streams.tup. Default none
-trace_sampling_core                    0 # The core which is printed using CORE_DPRINTF. Default 0
-trace_sampling_memory_partition                   -1 # The memory partition which is printed using MEMPART_DPRINTF. Default -1 (i.e. all)
-enable_ptx_file_line_stats                    1 # Turn on PTX source line statistic profiling. (1 = On)
-ptx_line_stats_filename gpgpu_inst_stats.txt # Output file for PTX source line statistics.
-gpgpu_kernel_launch_latency                    0 # Kernel launch latency in cycles. Default: 0
-gpgpu_cdp_enabled                      0 # Turn on CDP
-gpgpu_TB_launch_latency                    0 # thread block launch latency in cycles. Default: 0
DRAM Timing Options:
nbk                                    16 # number of banks
CCD                                     2 # column to column delay
RRD                                     6 # minimal delay between activation of rows in different banks
RCD                                    12 # row to column delay
RAS                                    28 # time needed to activate row
RP                                     12 # time needed to precharge (deactivate) row
RC                                     40 # row cycle time
CDLR                                    5 # switching from write to read (changes tWTR)
WR                                     12 # last data-in to row precharge
CL                                     12 # CAS latency
WL                                      4 # Write latency
nbkgrp                                  4 # number of bank groups
CCDL                                    3 # column to column delay between accesses to different bank groups
RTPL                                    2 # read to precharge delay between accesses to different bank groups
Total number of memory sub partition = 12
addr_dec_mask[CHIP]  = 0000000000000000 	high:64 low:0
addr_dec_mask[BK]    = 000000000000e100 	high:16 low:8
addr_dec_mask[ROW]   = 000000000fff0000 	high:28 low:16
addr_dec_mask[COL]   = 0000000000001eff 	high:13 low:0
addr_dec_mask[BURST] = 000000000000003f 	high:6 low:0
sub_partition_id_mask = 0000000000000100
GPGPU-Sim uArch: clock freqs: 700000000.000000:700000000.000000:700000000.000000:924000000.000000
GPGPU-Sim uArch: clock periods: 0.00000000142857142857:0.00000000142857142857:0.00000000142857142857:0.00000000108225108225
*** Initializing Memory Statistics ***
GPGPU-Sim uArch: interconnect node map (shaderID+MemID to icntID)
GPGPU-Sim uArch: Memory nodes ID start from index: 15
GPGPU-Sim uArch:    0   1   2   3   4
GPGPU-Sim uArch:    5   6   7   8   9
GPGPU-Sim uArch:   10  11  12  13  14
GPGPU-Sim uArch:   15  16  17  18  19
GPGPU-Sim uArch:   20  21  22  23  24
GPGPU-Sim uArch:   25  26
GPGPU-Sim uArch: interconnect node reverse map (icntID to shaderID+MemID)
GPGPU-Sim uArch: Memory nodes start from ID: 15
GPGPU-Sim uArch:    0   1   2   3   4
GPGPU-Sim uArch:    5   6   7   8   9
GPGPU-Sim uArch:   10  11  12  13  14
GPGPU-Sim uArch:   15  16  17  18  19
GPGPU-Sim uArch:   20  21  22  23  24
GPGPU-Sim uArch:   25  26
908356e4a1b892216dece6db78f8f898  /home/zhaosiying/codebase/gpgpu-sim/upstream_gpgpusim/gpgpu-sim_distribution/configs/tested-cfgs/SM2_GTX480/test_mpipdom_scoreboard_modified
Extracting PTX file and ptxas options    1: test_mpipdom_scoreboard_modified.1.sm_30.ptx -arch=sm_30 -O0  
GPGPU-Sim uArch: performance model initialization complete.
self exe links to: /home/zhaosiying/codebase/gpgpu-sim/upstream_gpgpusim/gpgpu-sim_distribution/configs/tested-cfgs/SM2_GTX480/test_mpipdom_scoreboard_modified
self exe links to: /home/zhaosiying/codebase/gpgpu-sim/upstream_gpgpusim/gpgpu-sim_distribution/configs/tested-cfgs/SM2_GTX480/test_mpipdom_scoreboard_modified
9.1
GPGPU-Sim PTX: __cudaRegisterFatBinary, fat_cubin_handle = 1, filename=default
self exe links to: /home/zhaosiying/codebase/gpgpu-sim/upstream_gpgpusim/gpgpu-sim_distribution/configs/tested-cfgs/SM2_GTX480/test_mpipdom_scoreboard_modified
Running md5sum using "md5sum /home/zhaosiying/codebase/gpgpu-sim/upstream_gpgpusim/gpgpu-sim_distribution/configs/tested-cfgs/SM2_GTX480/test_mpipdom_scoreboard_modified "
self exe links to: /home/zhaosiying/codebase/gpgpu-sim/upstream_gpgpusim/gpgpu-sim_distribution/configs/tested-cfgs/SM2_GTX480/test_mpipdom_scoreboard_modified
Extracting specific PTX file named test_mpipdom_scoreboard_modified.1.sm_30.ptx 
GPGPU-Sim PTX: __cudaRegisterFunction _Z21test_mpipdom_dualpathPiS_S_i : hostFun 0x0x56038b51e750, fat_cubin_handle = 1
GPGPU-Sim PTX: Parsing test_mpipdom_scoreboard_modified.1.sm_30.ptx
GPGPU-Sim PTX: instruction assembly for function '_Z21test_mpipdom_dualpathPiS_S_i'...   done.
GPGPU-Sim PTX: finished parsing EMBEDDED .ptx file test_mpipdom_scoreboard_modified.1.sm_30.ptx
GPGPU-Sim PTX: loading globals with explicit initializers... 
GPGPU-Sim PTX: finished loading globals (0 bytes total).
GPGPU-Sim PTX: loading constants with explicit initializers...  done.
GPGPU-Sim PTX: Loading PTXInfo from test_mpipdom_scoreboard_modified.1.sm_30.ptx
GPGPU-Sim PTX: Kernel '_Z21test_mpipdom_dualpathPiS_S_i' : regs=9, lmem=0, smem=0, cmem=348
Copy input data from the host memory to the CUDA device
CUDA kernel launch with 1 blocks of 32 threads
GPGPU-Sim PTX: Setting up arguments for 8 bytes starting at 0x7ffc50046048..
GPGPU-Sim PTX: Setting up arguments for 8 bytes starting at 0x7ffc50046040..
GPGPU-Sim PTX: Setting up arguments for 8 bytes starting at 0x7ffc50046038..
GPGPU-Sim PTX: Setting up arguments for 4 bytes starting at 0x7ffc50046034..

GPGPU-Sim PTX: cudaLaunch for 0x0x56038b51e750 (mode=performance simulation) on stream 0
GPGPU-Sim PTX: finding reconvergence points for '_Z21test_mpipdom_dualpathPiS_S_i'...
GPGPU-Sim PTX: Finding dominators for '_Z21test_mpipdom_dualpathPiS_S_i'...
GPGPU-Sim PTX: Finding immediate dominators for '_Z21test_mpipdom_dualpathPiS_S_i'...
GPGPU-Sim PTX: Finding postdominators for '_Z21test_mpipdom_dualpathPiS_S_i'...
GPGPU-Sim PTX: Finding immediate postdominators for '_Z21test_mpipdom_dualpathPiS_S_i'...
GPGPU-Sim PTX: pre-decoding instructions for '_Z21test_mpipdom_dualpathPiS_S_i'...
GPGPU-Sim PTX: reconvergence points for _Z21test_mpipdom_dualpathPiS_S_i...
GPGPU-Sim PTX:  1 (potential) branch divergence @  PC=0x050 (test_mpipdom_scoreboard_modified.1.sm_30.ptx:37) @%p2 bra BB0_1;
GPGPU-Sim PTX:    immediate post dominator      @  PC=0x118 (test_mpipdom_scoreboard_modified.1.sm_30.ptx:68) mov.u32%r6, %r7;
GPGPU-Sim PTX:  2 (potential) branch divergence @  PC=0x058 (test_mpipdom_scoreboard_modified.1.sm_30.ptx:38) bra.uni BB0_2;
GPGPU-Sim PTX:    immediate post dominator      @  PC=0x0f0 (test_mpipdom_scoreboard_modified.1.sm_30.ptx:61) cvt.s64.s32%rd7, %r1;
GPGPU-Sim PTX:  3 (potential) branch divergence @  PC=0x0e8 (test_mpipdom_scoreboard_modified.1.sm_30.ptx:58) bra.uni BB0_3;
GPGPU-Sim PTX:    immediate post dominator      @  PC=0x118 (test_mpipdom_scoreboard_modified.1.sm_30.ptx:68) mov.u32%r6, %r7;
GPGPU-Sim PTX: ... end of reconvergence points for _Z21test_mpipdom_dualpathPiS_S_i
GPGPU-Sim PTX: ... done pre-decoding instructions for '_Z21test_mpipdom_dualpathPiS_S_i'.
GPGPU-Sim PTX: pushing kernel '_Z21test_mpipdom_dualpathPiS_S_i' to stream 0, gridDim= (1,1,1) blockDim = (32,1,1) 
GPGPU-Sim uArch: Shader 0 bind to kernel 1 '_Z21test_mpipdom_dualpathPiS_S_i'
GPGPU-Sim uArch: CTA/core = 8, limited by: cta_limit
[ZSY][FETCH] warp 0 (original_warp_id = 0) fetch instructions(pc = 0x0) at cycle 1 and hit
before issue: scoreboard contents (sid=0): 
[N/A]
Warp (warp_id 0, original_warp_id 0) has valid instruction ( PC=0x000 (test_mpipdom_scoreboard_modified.1.sm_30.ptx:27) ld.param.u64 %rd1, [_Z21test_mpipdom_dualpathPiS_S_i_param_0];)
[ZSY][Scoreboard] checkCollision() wid = 0, active_mask = 11111111111111111111111111111111, regnum = 13 
Warp (warp_id 0, original_warp_id 0) passes scoreboard at cycle 3
[ZSY][Scoreboard] reserveRegister() wid = 0, active_mask = 11111111111111111111111111111111, regnum = 13
Warp (warp_id 0, original_warp_id 0) issued 1 instructions at cycle 3
after issue: scoreboard contents (sid=0): 
  wid =  0: 13(11111111111111111111111111111111) 
before issue: scoreboard contents (sid=0): 
  wid =  0: 13(11111111111111111111111111111111) 
Warp (warp_id 0, original_warp_id 0) has valid instruction ( PC=0x008 (test_mpipdom_scoreboard_modified.1.sm_30.ptx:28) ld.param.u64 %rd2, [_Z21test_mpipdom_dualpathPiS_S_i_param_1];)
[ZSY][Scoreboard] checkCollision() wid = 0, active_mask = 11111111111111111111111111111111, regnum = 14 
Warp (warp_id 0, original_warp_id 0) passes scoreboard at cycle 4
[ZSY][Scoreboard] reserveRegister() wid = 0, active_mask = 11111111111111111111111111111111, regnum = 14
Warp (warp_id 0, original_warp_id 0) issued 1 instructions at cycle 4
after issue: scoreboard contents (sid=0): 
  wid =  0: 13(11111111111111111111111111111111) 14(11111111111111111111111111111111) 
[ZSY][FETCH] warp 0 (original_warp_id = 0) fetch instructions(pc = 0x10) at cycle 4 and hit
[ZSY][Scoreboard] releaseRegister() wid = 0, active_mask = 11111111111111111111111111111111, regnum = 13 at cycle 6
before issue: scoreboard contents (sid=0): 
  wid =  0: 14(11111111111111111111111111111111) 
Warp (warp_id 0, original_warp_id 0) has valid instruction ( PC=0x010 (test_mpipdom_scoreboard_modified.1.sm_30.ptx:29) ld.param.u64 %rd3, [_Z21test_mpipdom_dualpathPiS_S_i_param_2];)
[ZSY][Scoreboard] checkCollision() wid = 0, active_mask = 11111111111111111111111111111111, regnum = 15 
Warp (warp_id 0, original_warp_id 0) passes scoreboard at cycle 6
[ZSY][Scoreboard] reserveRegister() wid = 0, active_mask = 11111111111111111111111111111111, regnum = 15
Warp (warp_id 0, original_warp_id 0) issued 1 instructions at cycle 6
after issue: scoreboard contents (sid=0): 
  wid =  0: 14(11111111111111111111111111111111) 15(11111111111111111111111111111111) 
[ZSY][Scoreboard] releaseRegister() wid = 0, active_mask = 11111111111111111111111111111111, regnum = 14 at cycle 7
before issue: scoreboard contents (sid=0): 
  wid =  0: 15(11111111111111111111111111111111) 
Warp (warp_id 0, original_warp_id 0) has valid instruction ( PC=0x018 (test_mpipdom_scoreboard_modified.1.sm_30.ptx:30) mov.u32 %r1, %tid.x;)
[ZSY][Scoreboard] checkCollision() wid = 0, active_mask = 11111111111111111111111111111111, regnum = 5 
Warp (warp_id 0, original_warp_id 0) passes scoreboard at cycle 7
[ZSY][Scoreboard] reserveRegister() wid = 0, active_mask = 11111111111111111111111111111111, regnum = 5
Warp (warp_id 0, original_warp_id 0) issued 1 instructions at cycle 7
after issue: scoreboard contents (sid=0): 
  wid =  0: 5(11111111111111111111111111111111) 15(11111111111111111111111111111111) 
[ZSY][FETCH] warp 0 (original_warp_id = 0) fetch instructions(pc = 0x20) at cycle 7 and hit
[ZSY][Scoreboard] releaseRegister() wid = 0, active_mask = 11111111111111111111111111111111, regnum = 15 at cycle 9
before issue: scoreboard contents (sid=0): 
  wid =  0: 5(11111111111111111111111111111111) 
Warp (warp_id 0, original_warp_id 0) has valid instruction ( PC=0x020 (test_mpipdom_scoreboard_modified.1.sm_30.ptx:31) cvt.s64.s32%rd4, %r1;)
[ZSY][Scoreboard] checkCollision() wid = 0, active_mask = 11111111111111111111111111111111, regnum = 5 Warp (warp_id 0, original_warp_id 0) fails scoreboard at cycle 9
before issue: scoreboard contents (sid=0): 
  wid =  0: 5(11111111111111111111111111111111) 
Warp (warp_id 0, original_warp_id 0) has valid instruction ( PC=0x020 (test_mpipdom_scoreboard_modified.1.sm_30.ptx:31) cvt.s64.s32%rd4, %r1;)
[ZSY][Scoreboard] checkCollision() wid = 0, active_mask = 11111111111111111111111111111111, regnum = 5 Warp (warp_id 0, original_warp_id 0) fails scoreboard at cycle 10
before issue: scoreboard contents (sid=0): 
  wid =  0: 5(11111111111111111111111111111111) 
Warp (warp_id 0, original_warp_id 0) has valid instruction ( PC=0x020 (test_mpipdom_scoreboard_modified.1.sm_30.ptx:31) cvt.s64.s32%rd4, %r1;)
[ZSY][Scoreboard] checkCollision() wid = 0, active_mask = 11111111111111111111111111111111, regnum = 5 Warp (warp_id 0, original_warp_id 0) fails scoreboard at cycle 11
before issue: scoreboard contents (sid=0): 
  wid =  0: 5(11111111111111111111111111111111) 
Warp (warp_id 0, original_warp_id 0) has valid instruction ( PC=0x020 (test_mpipdom_scoreboard_modified.1.sm_30.ptx:31) cvt.s64.s32%rd4, %r1;)
[ZSY][Scoreboard] checkCollision() wid = 0, active_mask = 11111111111111111111111111111111, regnum = 5 Warp (warp_id 0, original_warp_id 0) fails scoreboard at cycle 12
[ZSY][Scoreboard] releaseRegister() wid = 0, active_mask = 11111111111111111111111111111111, regnum = 5 at cycle 13
before issue: scoreboard contents (sid=0): 
[N/A]
Warp (warp_id 0, original_warp_id 0) has valid instruction ( PC=0x020 (test_mpipdom_scoreboard_modified.1.sm_30.ptx:31) cvt.s64.s32%rd4, %r1;)
[ZSY][Scoreboard] checkCollision() wid = 0, active_mask = 11111111111111111111111111111111, regnum = 5 16 
Warp (warp_id 0, original_warp_id 0) passes scoreboard at cycle 13
[ZSY][Scoreboard] reserveRegister() wid = 0, active_mask = 11111111111111111111111111111111, regnum = 16
Warp (warp_id 0, original_warp_id 0) issued 1 instructions at cycle 13
after issue: scoreboard contents (sid=0): 
  wid =  0: 16(11111111111111111111111111111111) 
before issue: scoreboard contents (sid=0): 
  wid =  0: 16(11111111111111111111111111111111) 
Warp (warp_id 0, original_warp_id 0) has valid instruction ( PC=0x028 (test_mpipdom_scoreboard_modified.1.sm_30.ptx:32) shl.b64 %rd5, %rd4, 2;)
[ZSY][Scoreboard] checkCollision() wid = 0, active_mask = 11111111111111111111111111111111, regnum = 16 Warp (warp_id 0, original_warp_id 0) fails scoreboard at cycle 14
before issue: scoreboard contents (sid=0): 
  wid =  0: 16(11111111111111111111111111111111) 
Warp (warp_id 0, original_warp_id 0) has valid instruction ( PC=0x028 (test_mpipdom_scoreboard_modified.1.sm_30.ptx:32) shl.b64 %rd5, %rd4, 2;)
[ZSY][Scoreboard] checkCollision() wid = 0, active_mask = 11111111111111111111111111111111, regnum = 16 Warp (warp_id 0, original_warp_id 0) fails scoreboard at cycle 15
before issue: scoreboard contents (sid=0): 
  wid =  0: 16(11111111111111111111111111111111) 
Warp (warp_id 0, original_warp_id 0) has valid instruction ( PC=0x028 (test_mpipdom_scoreboard_modified.1.sm_30.ptx:32) shl.b64 %rd5, %rd4, 2;)
[ZSY][Scoreboard] checkCollision() wid = 0, active_mask = 11111111111111111111111111111111, regnum = 16 Warp (warp_id 0, original_warp_id 0) fails scoreboard at cycle 16
before issue: scoreboard contents (sid=0): 
  wid =  0: 16(11111111111111111111111111111111) 
Warp (warp_id 0, original_warp_id 0) has valid instruction ( PC=0x028 (test_mpipdom_scoreboard_modified.1.sm_30.ptx:32) shl.b64 %rd5, %rd4, 2;)
[ZSY][Scoreboard] checkCollision() wid = 0, active_mask = 11111111111111111111111111111111, regnum = 16 Warp (warp_id 0, original_warp_id 0) fails scoreboard at cycle 17
before issue: scoreboard contents (sid=0): 
  wid =  0: 16(11111111111111111111111111111111) 
Warp (warp_id 0, original_warp_id 0) has valid instruction ( PC=0x028 (test_mpipdom_scoreboard_modified.1.sm_30.ptx:32) shl.b64 %rd5, %rd4, 2;)
[ZSY][Scoreboard] checkCollision() wid = 0, active_mask = 11111111111111111111111111111111, regnum = 16 Warp (warp_id 0, original_warp_id 0) fails scoreboard at cycle 18
before issue: scoreboard contents (sid=0): 
  wid =  0: 16(11111111111111111111111111111111) 
Warp (warp_id 0, original_warp_id 0) has valid instruction ( PC=0x028 (test_mpipdom_scoreboard_modified.1.sm_30.ptx:32) shl.b64 %rd5, %rd4, 2;)
[ZSY][Scoreboard] checkCollision() wid = 0, active_mask = 11111111111111111111111111111111, regnum = 16 Warp (warp_id 0, original_warp_id 0) fails scoreboard at cycle 19
[ZSY][Scoreboard] releaseRegister() wid = 0, active_mask = 11111111111111111111111111111111, regnum = 16 at cycle 20
before issue: scoreboard contents (sid=0): 
[N/A]
Warp (warp_id 0, original_warp_id 0) has valid instruction ( PC=0x028 (test_mpipdom_scoreboard_modified.1.sm_30.ptx:32) shl.b64 %rd5, %rd4, 2;)
[ZSY][Scoreboard] checkCollision() wid = 0, active_mask = 11111111111111111111111111111111, regnum = 16 17 
Warp (warp_id 0, original_warp_id 0) passes scoreboard at cycle 20
[ZSY][Scoreboard] reserveRegister() wid = 0, active_mask = 11111111111111111111111111111111, regnum = 17
Warp (warp_id 0, original_warp_id 0) issued 1 instructions at cycle 20
after issue: scoreboard contents (sid=0): 
  wid =  0: 17(11111111111111111111111111111111) 
[ZSY][FETCH] warp 0 (original_warp_id = 0) fetch instructions(pc = 0x30) at cycle 20 and hit
before issue: scoreboard contents (sid=0): 
  wid =  0: 17(11111111111111111111111111111111) 
Warp (warp_id 0, original_warp_id 0) has valid instruction ( PC=0x030 (test_mpipdom_scoreboard_modified.1.sm_30.ptx:33) add.s64 %rd6, %rd1, %rd5;)
[ZSY][Scoreboard] checkCollision() wid = 0, active_mask = 11111111111111111111111111111111, regnum = 13 17 Warp (warp_id 0, original_warp_id 0) fails scoreboard at cycle 22
before issue: scoreboard contents (sid=0): 
  wid =  0: 17(11111111111111111111111111111111) 
Warp (warp_id 0, original_warp_id 0) has valid instruction ( PC=0x030 (test_mpipdom_scoreboard_modified.1.sm_30.ptx:33) add.s64 %rd6, %rd1, %rd5;)
[ZSY][Scoreboard] checkCollision() wid = 0, active_mask = 11111111111111111111111111111111, regnum = 13 17 Warp (warp_id 0, original_warp_id 0) fails scoreboard at cycle 23
before issue: scoreboard contents (sid=0): 
  wid =  0: 17(11111111111111111111111111111111) 
Warp (warp_id 0, original_warp_id 0) has valid instruction ( PC=0x030 (test_mpipdom_scoreboard_modified.1.sm_30.ptx:33) add.s64 %rd6, %rd1, %rd5;)
[ZSY][Scoreboard] checkCollision() wid = 0, active_mask = 11111111111111111111111111111111, regnum = 13 17 Warp (warp_id 0, original_warp_id 0) fails scoreboard at cycle 24
before issue: scoreboard contents (sid=0): 
  wid =  0: 17(11111111111111111111111111111111) 
Warp (warp_id 0, original_warp_id 0) has valid instruction ( PC=0x030 (test_mpipdom_scoreboard_modified.1.sm_30.ptx:33) add.s64 %rd6, %rd1, %rd5;)
[ZSY][Scoreboard] checkCollision() wid = 0, active_mask = 11111111111111111111111111111111, regnum = 13 17 Warp (warp_id 0, original_warp_id 0) fails scoreboard at cycle 25
before issue: scoreboard contents (sid=0): 
  wid =  0: 17(11111111111111111111111111111111) 
Warp (warp_id 0, original_warp_id 0) has valid instruction ( PC=0x030 (test_mpipdom_scoreboard_modified.1.sm_30.ptx:33) add.s64 %rd6, %rd1, %rd5;)
[ZSY][Scoreboard] checkCollision() wid = 0, active_mask = 11111111111111111111111111111111, regnum = 13 17 Warp (warp_id 0, original_warp_id 0) fails scoreboard at cycle 26
[ZSY][Scoreboard] releaseRegister() wid = 0, active_mask = 11111111111111111111111111111111, regnum = 17 at cycle 27
before issue: scoreboard contents (sid=0): 
[N/A]
Warp (warp_id 0, original_warp_id 0) has valid instruction ( PC=0x030 (test_mpipdom_scoreboard_modified.1.sm_30.ptx:33) add.s64 %rd6, %rd1, %rd5;)
[ZSY][Scoreboard] checkCollision() wid = 0, active_mask = 11111111111111111111111111111111, regnum = 13 17 18 
Warp (warp_id 0, original_warp_id 0) passes scoreboard at cycle 27
[ZSY][Scoreboard] reserveRegister() wid = 0, active_mask = 11111111111111111111111111111111, regnum = 18
Warp (warp_id 0, original_warp_id 0) issued 1 instructions at cycle 27
after issue: scoreboard contents (sid=0): 
  wid =  0: 18(11111111111111111111111111111111) 
before issue: scoreboard contents (sid=0): 
  wid =  0: 18(11111111111111111111111111111111) 
Warp (warp_id 0, original_warp_id 0) has valid instruction ( PC=0x038 (test_mpipdom_scoreboard_modified.1.sm_30.ptx:34) ld.u32 %r2, [%rd6];)
[ZSY][Scoreboard] checkCollision() wid = 0, active_mask = 11111111111111111111111111111111, regnum = 6 18 Warp (warp_id 0, original_warp_id 0) fails scoreboard at cycle 28
before issue: scoreboard contents (sid=0): 
  wid =  0: 18(11111111111111111111111111111111) 
Warp (warp_id 0, original_warp_id 0) has valid instruction ( PC=0x038 (test_mpipdom_scoreboard_modified.1.sm_30.ptx:34) ld.u32 %r2, [%rd6];)
[ZSY][Scoreboard] checkCollision() wid = 0, active_mask = 11111111111111111111111111111111, regnum = 6 18 Warp (warp_id 0, original_warp_id 0) fails scoreboard at cycle 29
before issue: scoreboard contents (sid=0): 
  wid =  0: 18(11111111111111111111111111111111) 
Warp (warp_id 0, original_warp_id 0) has valid instruction ( PC=0x038 (test_mpipdom_scoreboard_modified.1.sm_30.ptx:34) ld.u32 %r2, [%rd6];)
[ZSY][Scoreboard] checkCollision() wid = 0, active_mask = 11111111111111111111111111111111, regnum = 6 18 Warp (warp_id 0, original_warp_id 0) fails scoreboard at cycle 30
before issue: scoreboard contents (sid=0): 
  wid =  0: 18(11111111111111111111111111111111) 
Warp (warp_id 0, original_warp_id 0) has valid instruction ( PC=0x038 (test_mpipdom_scoreboard_modified.1.sm_30.ptx:34) ld.u32 %r2, [%rd6];)
[ZSY][Scoreboard] checkCollision() wid = 0, active_mask = 11111111111111111111111111111111, regnum = 6 18 Warp (warp_id 0, original_warp_id 0) fails scoreboard at cycle 31
before issue: scoreboard contents (sid=0): 
  wid =  0: 18(11111111111111111111111111111111) 
Warp (warp_id 0, original_warp_id 0) has valid instruction ( PC=0x038 (test_mpipdom_scoreboard_modified.1.sm_30.ptx:34) ld.u32 %r2, [%rd6];)
[ZSY][Scoreboard] checkCollision() wid = 0, active_mask = 11111111111111111111111111111111, regnum = 6 18 Warp (warp_id 0, original_warp_id 0) fails scoreboard at cycle 32
before issue: scoreboard contents (sid=0): 
  wid =  0: 18(11111111111111111111111111111111) 
Warp (warp_id 0, original_warp_id 0) has valid instruction ( PC=0x038 (test_mpipdom_scoreboard_modified.1.sm_30.ptx:34) ld.u32 %r2, [%rd6];)
[ZSY][Scoreboard] checkCollision() wid = 0, active_mask = 11111111111111111111111111111111, regnum = 6 18 Warp (warp_id 0, original_warp_id 0) fails scoreboard at cycle 33
before issue: scoreboard contents (sid=0): 
  wid =  0: 18(11111111111111111111111111111111) 
Warp (warp_id 0, original_warp_id 0) has valid instruction ( PC=0x038 (test_mpipdom_scoreboard_modified.1.sm_30.ptx:34) ld.u32 %r2, [%rd6];)
[ZSY][Scoreboard] checkCollision() wid = 0, active_mask = 11111111111111111111111111111111, regnum = 6 18 Warp (warp_id 0, original_warp_id 0) fails scoreboard at cycle 34
before issue: scoreboard contents (sid=0): 
  wid =  0: 18(11111111111111111111111111111111) 
Warp (warp_id 0, original_warp_id 0) has valid instruction ( PC=0x038 (test_mpipdom_scoreboard_modified.1.sm_30.ptx:34) ld.u32 %r2, [%rd6];)
[ZSY][Scoreboard] checkCollision() wid = 0, active_mask = 11111111111111111111111111111111, regnum = 6 18 Warp (warp_id 0, original_warp_id 0) fails scoreboard at cycle 35
before issue: scoreboard contents (sid=0): 
  wid =  0: 18(11111111111111111111111111111111) 
Warp (warp_id 0, original_warp_id 0) has valid instruction ( PC=0x038 (test_mpipdom_scoreboard_modified.1.sm_30.ptx:34) ld.u32 %r2, [%rd6];)
[ZSY][Scoreboard] checkCollision() wid = 0, active_mask = 11111111111111111111111111111111, regnum = 6 18 Warp (warp_id 0, original_warp_id 0) fails scoreboard at cycle 36
[ZSY][Scoreboard] releaseRegister() wid = 0, active_mask = 11111111111111111111111111111111, regnum = 18 at cycle 37
before issue: scoreboard contents (sid=0): 
[N/A]
Warp (warp_id 0, original_warp_id 0) has valid instruction ( PC=0x038 (test_mpipdom_scoreboard_modified.1.sm_30.ptx:34) ld.u32 %r2, [%rd6];)
[ZSY][Scoreboard] checkCollision() wid = 0, active_mask = 11111111111111111111111111111111, regnum = 6 18 
Warp (warp_id 0, original_warp_id 0) passes scoreboard at cycle 37
[ZSY][Scoreboard] reserveRegister() wid = 0, active_mask = 11111111111111111111111111111111, regnum = 6
Warp (warp_id 0, original_warp_id 0) issued 1 instructions at cycle 37
after issue: scoreboard contents (sid=0): 
  wid =  0: 6(11111111111111111111111111111111) 
[ZSY][FETCH] warp 0 (original_warp_id = 0) fetch instructions(pc = 0x40) at cycle 37 and hit
before issue: scoreboard contents (sid=0): 
  wid =  0: 6(11111111111111111111111111111111) 
Warp (warp_id 0, original_warp_id 0) has valid instruction ( PC=0x040 (test_mpipdom_scoreboard_modified.1.sm_30.ptx:35) setp.lt.s32%p1, %r1, 8;)
[ZSY][Scoreboard] checkCollision() wid = 0, active_mask = 11111111111111111111111111111111, regnum = 2 5 
Warp (warp_id 0, original_warp_id 0) passes scoreboard at cycle 39
[ZSY][Scoreboard] reserveRegister() wid = 0, active_mask = 11111111111111111111111111111111, regnum = 2
Warp (warp_id 0, original_warp_id 0) issued 1 instructions at cycle 39
after issue: scoreboard contents (sid=0): 
  wid =  0: 2(11111111111111111111111111111111) 6(11111111111111111111111111111111) 
before issue: scoreboard contents (sid=0): 
  wid =  0: 2(11111111111111111111111111111111) 6(11111111111111111111111111111111) 
Warp (warp_id 0, original_warp_id 0) has valid instruction ( PC=0x048 (test_mpipdom_scoreboard_modified.1.sm_30.ptx:36) not.pred %p2, %p1;)
[ZSY][Scoreboard] checkCollision() wid = 0, active_mask = 11111111111111111111111111111111, regnum = 2 Warp (warp_id 0, original_warp_id 0) fails scoreboard at cycle 40
before issue: scoreboard contents (sid=0): 
  wid =  0: 2(11111111111111111111111111111111) 6(11111111111111111111111111111111) 
Warp (warp_id 0, original_warp_id 0) has valid instruction ( PC=0x048 (test_mpipdom_scoreboard_modified.1.sm_30.ptx:36) not.pred %p2, %p1;)
[ZSY][Scoreboard] checkCollision() wid = 0, active_mask = 11111111111111111111111111111111, regnum = 2 Warp (warp_id 0, original_warp_id 0) fails scoreboard at cycle 41
before issue: scoreboard contents (sid=0): 
  wid =  0: 2(11111111111111111111111111111111) 6(11111111111111111111111111111111) 
Warp (warp_id 0, original_warp_id 0) has valid instruction ( PC=0x048 (test_mpipdom_scoreboard_modified.1.sm_30.ptx:36) not.pred %p2, %p1;)
[ZSY][Scoreboard] checkCollision() wid = 0, active_mask = 11111111111111111111111111111111, regnum = 2 Warp (warp_id 0, original_warp_id 0) fails scoreboard at cycle 42
before issue: scoreboard contents (sid=0): 
  wid =  0: 2(11111111111111111111111111111111) 6(11111111111111111111111111111111) 
Warp (warp_id 0, original_warp_id 0) has valid instruction ( PC=0x048 (test_mpipdom_scoreboard_modified.1.sm_30.ptx:36) not.pred %p2, %p1;)
[ZSY][Scoreboard] checkCollision() wid = 0, active_mask = 11111111111111111111111111111111, regnum = 2 Warp (warp_id 0, original_warp_id 0) fails scoreboard at cycle 43
before issue: scoreboard contents (sid=0): 
  wid =  0: 2(11111111111111111111111111111111) 6(11111111111111111111111111111111) 
Warp (warp_id 0, original_warp_id 0) has valid instruction ( PC=0x048 (test_mpipdom_scoreboard_modified.1.sm_30.ptx:36) not.pred %p2, %p1;)
[ZSY][Scoreboard] checkCollision() wid = 0, active_mask = 11111111111111111111111111111111, regnum = 2 Warp (warp_id 0, original_warp_id 0) fails scoreboard at cycle 44
before issue: scoreboard contents (sid=0): 
  wid =  0: 2(11111111111111111111111111111111) 6(11111111111111111111111111111111) 
Warp (warp_id 0, original_warp_id 0) has valid instruction ( PC=0x048 (test_mpipdom_scoreboard_modified.1.sm_30.ptx:36) not.pred %p2, %p1;)
[ZSY][Scoreboard] checkCollision() wid = 0, active_mask = 11111111111111111111111111111111, regnum = 2 Warp (warp_id 0, original_warp_id 0) fails scoreboard at cycle 45
[ZSY][Scoreboard] releaseRegister() wid = 0, active_mask = 11111111111111111111111111111111, regnum = 2 at cycle 46
before issue: scoreboard contents (sid=0): 
  wid =  0: 6(11111111111111111111111111111111) 
Warp (warp_id 0, original_warp_id 0) has valid instruction ( PC=0x048 (test_mpipdom_scoreboard_modified.1.sm_30.ptx:36) not.pred %p2, %p1;)
[ZSY][Scoreboard] checkCollision() wid = 0, active_mask = 11111111111111111111111111111111, regnum = 2 3 
Warp (warp_id 0, original_warp_id 0) passes scoreboard at cycle 46
[ZSY][Scoreboard] reserveRegister() wid = 0, active_mask = 11111111111111111111111111111111, regnum = 3
Warp (warp_id 0, original_warp_id 0) issued 1 instructions at cycle 46
after issue: scoreboard contents (sid=0): 
  wid =  0: 3(11111111111111111111111111111111) 6(11111111111111111111111111111111) 
[ZSY][FETCH] warp 0 (original_warp_id = 0) fetch instructions(pc = 0x50) at cycle 46 and hit
before issue: scoreboard contents (sid=0): 
  wid =  0: 3(11111111111111111111111111111111) 6(11111111111111111111111111111111) 
Warp (warp_id 0, original_warp_id 0) has valid instruction ( PC=0x050 (test_mpipdom_scoreboard_modified.1.sm_30.ptx:37) @%p2 bra BB0_1;)
[ZSY][Scoreboard] checkCollision() wid = 0, active_mask = 11111111111111111111111111111111, regnum = 3 Warp (warp_id 0, original_warp_id 0) fails scoreboard at cycle 48
before issue: scoreboard contents (sid=0): 
  wid =  0: 3(11111111111111111111111111111111) 6(11111111111111111111111111111111) 
Warp (warp_id 0, original_warp_id 0) has valid instruction ( PC=0x050 (test_mpipdom_scoreboard_modified.1.sm_30.ptx:37) @%p2 bra BB0_1;)
[ZSY][Scoreboard] checkCollision() wid = 0, active_mask = 11111111111111111111111111111111, regnum = 3 Warp (warp_id 0, original_warp_id 0) fails scoreboard at cycle 49
before issue: scoreboard contents (sid=0): 
  wid =  0: 3(11111111111111111111111111111111) 6(11111111111111111111111111111111) 
Warp (warp_id 0, original_warp_id 0) has valid instruction ( PC=0x050 (test_mpipdom_scoreboard_modified.1.sm_30.ptx:37) @%p2 bra BB0_1;)
[ZSY][Scoreboard] checkCollision() wid = 0, active_mask = 11111111111111111111111111111111, regnum = 3 Warp (warp_id 0, original_warp_id 0) fails scoreboard at cycle 50
before issue: scoreboard contents (sid=0): 
  wid =  0: 3(11111111111111111111111111111111) 6(11111111111111111111111111111111) 
Warp (warp_id 0, original_warp_id 0) has valid instruction ( PC=0x050 (test_mpipdom_scoreboard_modified.1.sm_30.ptx:37) @%p2 bra BB0_1;)
[ZSY][Scoreboard] checkCollision() wid = 0, active_mask = 11111111111111111111111111111111, regnum = 3 Warp (warp_id 0, original_warp_id 0) fails scoreboard at cycle 51
before issue: scoreboard contents (sid=0): 
  wid =  0: 3(11111111111111111111111111111111) 6(11111111111111111111111111111111) 
Warp (warp_id 0, original_warp_id 0) has valid instruction ( PC=0x050 (test_mpipdom_scoreboard_modified.1.sm_30.ptx:37) @%p2 bra BB0_1;)
[ZSY][Scoreboard] checkCollision() wid = 0, active_mask = 11111111111111111111111111111111, regnum = 3 Warp (warp_id 0, original_warp_id 0) fails scoreboard at cycle 52
[ZSY][Scoreboard] releaseRegister() wid = 0, active_mask = 11111111111111111111111111111111, regnum = 3 at cycle 53
before issue: scoreboard contents (sid=0): 
  wid =  0: 6(11111111111111111111111111111111) 
Warp (warp_id 0, original_warp_id 0) has valid instruction ( PC=0x050 (test_mpipdom_scoreboard_modified.1.sm_30.ptx:37) @%p2 bra BB0_1;)
[ZSY][Scoreboard] checkCollision() wid = 0, active_mask = 11111111111111111111111111111111, regnum = 3 
Warp (warp_id 0, original_warp_id 0) passes scoreboard at cycle 53
[ZSY][SIMT_STACK] before warp 0 (original_warp_id = 0) split at cycle 53:
Splits Table(ST) of SM_id(00):
warp_id: 00, original_wid: 00, active_mask: 11111111111111111111111111111111, pc: 0x050, rpc: -----, tp: N, cd:  1 test_mpipdom_dualpath PC=0x050 (test_mpipdom_scoreboard_modified.1.sm_30.ptx:37) @%p2 bra BB0_1;

Reconvergence Table(RT) of SM_id(00) Warp_id(00):
[N/A]

[ZSY][SIMT_STACK] after warp 0 (original_warp_id = 0) split at cycle 53:
Splits Table(ST) of SM_id(00):
warp_id: 00, original_wid: 00, active_mask: 00000000000000000000000011111111, pc: 0x058, rpc: 0x118, tp: N, cd:  0 test_mpipdom_dualpath PC=0x058 (test_mpipdom_scoreboard_modified.1.sm_30.ptx:38) bra.uni BB0_2;
warp_id: 01, original_wid: 00, active_mask: 11111111111111111111111100000000, pc: 0x0c0, rpc: 0x118, tp: N, cd:  0 test_mpipdom_dualpath PC=0x0c0 (test_mpipdom_scoreboard_modified.1.sm_30.ptx:53) cvt.s64.s32%rd10, %r2;

Reconvergence Table(RT) of SM_id(00) Warp_id(00):
split_wid: 00, record_mask: 11111111111111111111111111111111, pending_mask: 11111111111111111111111111111111, pc: 0x118, rpc: -----, tp: N, cd:  1 test_mpipdom_dualpath PC=0x118 (test_mpipdom_scoreboard_modified.1.sm_30.ptx:68) mov.u32%r6, %r7;

Warp (warp_id 0, original_warp_id 0) issued 1 instructions at cycle 53
after issue: scoreboard contents (sid=0): 
  wid =  0: 6(11111111111111111111111111111111) 
[ZSY][FETCH] warp 1 (original_warp_id = 0) fetch instructions(pc = 0xc0) at cycle 53 and hit
before issue: scoreboard contents (sid=0): 
  wid =  0: 6(11111111111111111111111111111111) 
Warp (warp_id 0, original_warp_id 0) has valid instruction ( PC=0x058 (test_mpipdom_scoreboard_modified.1.sm_30.ptx:38) bra.uni BB0_2;)
[ZSY][Scoreboard] checkCollision() wid = 0, active_mask = 00000000000000000000000011111111, regnum = 
Warp (warp_id 0, original_warp_id 0) passes scoreboard at cycle 54
Warp (warp_id 0, original_warp_id 0) issued 1 instructions at cycle 54
after issue: scoreboard contents (sid=0): 
  wid =  0: 6(11111111111111111111111111111111) 
[ZSY][FETCH] warp 0 (original_warp_id = 0) fetch instructions(pc = 0x60) at cycle 54 and hit
before issue: scoreboard contents (sid=0): 
  wid =  0: 6(11111111111111111111111111111111) 
Warp (warp_id 1, original_warp_id 0) has valid instruction ( PC=0x0c0 (test_mpipdom_scoreboard_modified.1.sm_30.ptx:53) cvt.s64.s32%rd10, %r2;)
[ZSY][Scoreboard] checkCollision() wid = 0, active_mask = 11111111111111111111111100000000, regnum = 6 Warp (warp_id 1, original_warp_id 0) fails scoreboard at cycle 55
before issue: scoreboard contents (sid=0): 
  wid =  0: 6(11111111111111111111111111111111) 
Warp (warp_id 1, original_warp_id 0) has valid instruction ( PC=0x0c0 (test_mpipdom_scoreboard_modified.1.sm_30.ptx:53) cvt.s64.s32%rd10, %r2;)
[ZSY][Scoreboard] checkCollision() wid = 0, active_mask = 11111111111111111111111100000000, regnum = 6 Warp (warp_id 1, original_warp_id 0) fails scoreboard at cycle 56
before issue: scoreboard contents (sid=0): 
  wid =  0: 6(11111111111111111111111111111111) 
Warp (warp_id 0, original_warp_id 0) has valid instruction ( PC=0x0f0 (test_mpipdom_scoreboard_modified.1.sm_30.ptx:61) cvt.s64.s32%rd7, %r1;)
Warp (warp_id 0, dynamic_warp_id 0) control hazard instruction flush
[ZSY][FETCH] warp 0 (original_warp_id = 0) fetch instructions(pc = 0xf0) at cycle 56 and hit
before issue: scoreboard contents (sid=0): 
  wid =  0: 6(11111111111111111111111111111111) 
Warp (warp_id 1, original_warp_id 0) has valid instruction ( PC=0x0c0 (test_mpipdom_scoreboard_modified.1.sm_30.ptx:53) cvt.s64.s32%rd10, %r2;)
[ZSY][Scoreboard] checkCollision() wid = 0, active_mask = 11111111111111111111111100000000, regnum = 6 Warp (warp_id 1, original_warp_id 0) fails scoreboard at cycle 57
before issue: scoreboard contents (sid=0): 
  wid =  0: 6(11111111111111111111111111111111) 
Warp (warp_id 1, original_warp_id 0) has valid instruction ( PC=0x0c0 (test_mpipdom_scoreboard_modified.1.sm_30.ptx:53) cvt.s64.s32%rd10, %r2;)
[ZSY][Scoreboard] checkCollision() wid = 0, active_mask = 11111111111111111111111100000000, regnum = 6 Warp (warp_id 1, original_warp_id 0) fails scoreboard at cycle 58
before issue: scoreboard contents (sid=0): 
  wid =  0: 6(11111111111111111111111111111111) 
Warp (warp_id 0, original_warp_id 0) has valid instruction ( PC=0x0f0 (test_mpipdom_scoreboard_modified.1.sm_30.ptx:61) cvt.s64.s32%rd7, %r1;)
[ZSY][Scoreboard] checkCollision() wid = 0, active_mask = 00000000000000000000000011111111, regnum = 5 19 
Warp (warp_id 0, original_warp_id 0) passes scoreboard at cycle 58
[ZSY][Scoreboard] reserveRegister() wid = 0, active_mask = 00000000000000000000000011111111, regnum = 19
Warp (warp_id 0, original_warp_id 0) issued 1 instructions at cycle 58
after issue: scoreboard contents (sid=0): 
  wid =  0: 6(11111111111111111111111111111111) 19(00000000000000000000000011111111) 
before issue: scoreboard contents (sid=0): 
  wid =  0: 6(11111111111111111111111111111111) 19(00000000000000000000000011111111) 
Warp (warp_id 0, original_warp_id 0) has valid instruction ( PC=0x0f8 (test_mpipdom_scoreboard_modified.1.sm_30.ptx:62) shl.b64 %rd8, %rd7, 2;)
[ZSY][Scoreboard] checkCollision() wid = 0, active_mask = 00000000000000000000000011111111, regnum = 19 Warp (warp_id 0, original_warp_id 0) fails scoreboard at cycle 59
before issue: scoreboard contents (sid=0): 
  wid =  0: 6(11111111111111111111111111111111) 19(00000000000000000000000011111111) 
Warp (warp_id 1, original_warp_id 0) has valid instruction ( PC=0x0c0 (test_mpipdom_scoreboard_modified.1.sm_30.ptx:53) cvt.s64.s32%rd10, %r2;)
[ZSY][Scoreboard] checkCollision() wid = 0, active_mask = 11111111111111111111111100000000, regnum = 6 Warp (warp_id 1, original_warp_id 0) fails scoreboard at cycle 59
before issue: scoreboard contents (sid=0): 
  wid =  0: 6(11111111111111111111111111111111) 19(00000000000000000000000011111111) 
Warp (warp_id 1, original_warp_id 0) has valid instruction ( PC=0x0c0 (test_mpipdom_scoreboard_modified.1.sm_30.ptx:53) cvt.s64.s32%rd10, %r2;)
[ZSY][Scoreboard] checkCollision() wid = 0, active_mask = 11111111111111111111111100000000, regnum = 6 Warp (warp_id 1, original_warp_id 0) fails scoreboard at cycle 60
before issue: scoreboard contents (sid=0): 
  wid =  0: 6(11111111111111111111111111111111) 19(00000000000000000000000011111111) 
Warp (warp_id 0, original_warp_id 0) has valid instruction ( PC=0x0f8 (test_mpipdom_scoreboard_modified.1.sm_30.ptx:62) shl.b64 %rd8, %rd7, 2;)
[ZSY][Scoreboard] checkCollision() wid = 0, active_mask = 00000000000000000000000011111111, regnum = 19 Warp (warp_id 0, original_warp_id 0) fails scoreboard at cycle 60
before issue: scoreboard contents (sid=0): 
  wid =  0: 6(11111111111111111111111111111111) 19(00000000000000000000000011111111) 
Warp (warp_id 0, original_warp_id 0) has valid instruction ( PC=0x0f8 (test_mpipdom_scoreboard_modified.1.sm_30.ptx:62) shl.b64 %rd8, %rd7, 2;)
[ZSY][Scoreboard] checkCollision() wid = 0, active_mask = 00000000000000000000000011111111, regnum = 19 Warp (warp_id 0, original_warp_id 0) fails scoreboard at cycle 61
before issue: scoreboard contents (sid=0): 
  wid =  0: 6(11111111111111111111111111111111) 19(00000000000000000000000011111111) 
Warp (warp_id 1, original_warp_id 0) has valid instruction ( PC=0x0c0 (test_mpipdom_scoreboard_modified.1.sm_30.ptx:53) cvt.s64.s32%rd10, %r2;)
[ZSY][Scoreboard] checkCollision() wid = 0, active_mask = 11111111111111111111111100000000, regnum = 6 Warp (warp_id 1, original_warp_id 0) fails scoreboard at cycle 61
before issue: scoreboard contents (sid=0): 
  wid =  0: 6(11111111111111111111111111111111) 19(00000000000000000000000011111111) 
Warp (warp_id 1, original_warp_id 0) has valid instruction ( PC=0x0c0 (test_mpipdom_scoreboard_modified.1.sm_30.ptx:53) cvt.s64.s32%rd10, %r2;)
[ZSY][Scoreboard] checkCollision() wid = 0, active_mask = 11111111111111111111111100000000, regnum = 6 Warp (warp_id 1, original_warp_id 0) fails scoreboard at cycle 62
before issue: scoreboard contents (sid=0): 
  wid =  0: 6(11111111111111111111111111111111) 19(00000000000000000000000011111111) 
Warp (warp_id 0, original_warp_id 0) has valid instruction ( PC=0x0f8 (test_mpipdom_scoreboard_modified.1.sm_30.ptx:62) shl.b64 %rd8, %rd7, 2;)
[ZSY][Scoreboard] checkCollision() wid = 0, active_mask = 00000000000000000000000011111111, regnum = 19 Warp (warp_id 0, original_warp_id 0) fails scoreboard at cycle 62
before issue: scoreboard contents (sid=0): 
  wid =  0: 6(11111111111111111111111111111111) 19(00000000000000000000000011111111) 
Warp (warp_id 0, original_warp_id 0) has valid instruction ( PC=0x0f8 (test_mpipdom_scoreboard_modified.1.sm_30.ptx:62) shl.b64 %rd8, %rd7, 2;)
[ZSY][Scoreboard] checkCollision() wid = 0, active_mask = 00000000000000000000000011111111, regnum = 19 Warp (warp_id 0, original_warp_id 0) fails scoreboard at cycle 63
before issue: scoreboard contents (sid=0): 
  wid =  0: 6(11111111111111111111111111111111) 19(00000000000000000000000011111111) 
Warp (warp_id 1, original_warp_id 0) has valid instruction ( PC=0x0c0 (test_mpipdom_scoreboard_modified.1.sm_30.ptx:53) cvt.s64.s32%rd10, %r2;)
[ZSY][Scoreboard] checkCollision() wid = 0, active_mask = 11111111111111111111111100000000, regnum = 6 Warp (warp_id 1, original_warp_id 0) fails scoreboard at cycle 63
before issue: scoreboard contents (sid=0): 
  wid =  0: 6(11111111111111111111111111111111) 19(00000000000000000000000011111111) 
Warp (warp_id 1, original_warp_id 0) has valid instruction ( PC=0x0c0 (test_mpipdom_scoreboard_modified.1.sm_30.ptx:53) cvt.s64.s32%rd10, %r2;)
[ZSY][Scoreboard] checkCollision() wid = 0, active_mask = 11111111111111111111111100000000, regnum = 6 Warp (warp_id 1, original_warp_id 0) fails scoreboard at cycle 64
before issue: scoreboard contents (sid=0): 
  wid =  0: 6(11111111111111111111111111111111) 19(00000000000000000000000011111111) 
Warp (warp_id 0, original_warp_id 0) has valid instruction ( PC=0x0f8 (test_mpipdom_scoreboard_modified.1.sm_30.ptx:62) shl.b64 %rd8, %rd7, 2;)
[ZSY][Scoreboard] checkCollision() wid = 0, active_mask = 00000000000000000000000011111111, regnum = 19 Warp (warp_id 0, original_warp_id 0) fails scoreboard at cycle 64
[ZSY][Scoreboard] releaseRegister() wid = 0, active_mask = 00000000000000000000000011111111, regnum = 19 at cycle 65
before issue: scoreboard contents (sid=0): 
  wid =  0: 6(11111111111111111111111111111111) 
Warp (warp_id 0, original_warp_id 0) has valid instruction ( PC=0x0f8 (test_mpipdom_scoreboard_modified.1.sm_30.ptx:62) shl.b64 %rd8, %rd7, 2;)
[ZSY][Scoreboard] checkCollision() wid = 0, active_mask = 00000000000000000000000011111111, regnum = 19 20 
Warp (warp_id 0, original_warp_id 0) passes scoreboard at cycle 65
[ZSY][Scoreboard] reserveRegister() wid = 0, active_mask = 00000000000000000000000011111111, regnum = 20
Warp (warp_id 0, original_warp_id 0) issued 1 instructions at cycle 65
after issue: scoreboard contents (sid=0): 
  wid =  0: 6(11111111111111111111111111111111) 20(00000000000000000000000011111111) 
before issue: scoreboard contents (sid=0): 
  wid =  0: 6(11111111111111111111111111111111) 20(00000000000000000000000011111111) 
Warp (warp_id 1, original_warp_id 0) has valid instruction ( PC=0x0c0 (test_mpipdom_scoreboard_modified.1.sm_30.ptx:53) cvt.s64.s32%rd10, %r2;)
[ZSY][Scoreboard] checkCollision() wid = 0, active_mask = 11111111111111111111111100000000, regnum = 6 Warp (warp_id 1, original_warp_id 0) fails scoreboard at cycle 65
[ZSY][FETCH] warp 0 (original_warp_id = 0) fetch instructions(pc = 0x100) at cycle 65 and hit
before issue: scoreboard contents (sid=0): 
  wid =  0: 6(11111111111111111111111111111111) 20(00000000000000000000000011111111) 
Warp (warp_id 1, original_warp_id 0) has valid instruction ( PC=0x0c0 (test_mpipdom_scoreboard_modified.1.sm_30.ptx:53) cvt.s64.s32%rd10, %r2;)
[ZSY][Scoreboard] checkCollision() wid = 0, active_mask = 11111111111111111111111100000000, regnum = 6 Warp (warp_id 1, original_warp_id 0) fails scoreboard at cycle 66
before issue: scoreboard contents (sid=0): 
  wid =  0: 6(11111111111111111111111111111111) 20(00000000000000000000000011111111) 
Warp (warp_id 0, original_warp_id 0) has valid instruction ( PC=0x100 (test_mpipdom_scoreboard_modified.1.sm_30.ptx:63) add.s64 %rd9, %rd2, %rd8;)
[ZSY][Scoreboard] checkCollision() wid = 0, active_mask = 00000000000000000000000011111111, regnum = 14 20 Warp (warp_id 0, original_warp_id 0) fails scoreboard at cycle 67
before issue: scoreboard contents (sid=0): 
  wid =  0: 6(11111111111111111111111111111111) 20(00000000000000000000000011111111) 
Warp (warp_id 1, original_warp_id 0) has valid instruction ( PC=0x0c0 (test_mpipdom_scoreboard_modified.1.sm_30.ptx:53) cvt.s64.s32%rd10, %r2;)
[ZSY][Scoreboard] checkCollision() wid = 0, active_mask = 11111111111111111111111100000000, regnum = 6 Warp (warp_id 1, original_warp_id 0) fails scoreboard at cycle 67
before issue: scoreboard contents (sid=0): 
  wid =  0: 6(11111111111111111111111111111111) 20(00000000000000000000000011111111) 
Warp (warp_id 1, original_warp_id 0) has valid instruction ( PC=0x0c0 (test_mpipdom_scoreboard_modified.1.sm_30.ptx:53) cvt.s64.s32%rd10, %r2;)
[ZSY][Scoreboard] checkCollision() wid = 0, active_mask = 11111111111111111111111100000000, regnum = 6 Warp (warp_id 1, original_warp_id 0) fails scoreboard at cycle 68
before issue: scoreboard contents (sid=0): 
  wid =  0: 6(11111111111111111111111111111111) 20(00000000000000000000000011111111) 
Warp (warp_id 0, original_warp_id 0) has valid instruction ( PC=0x100 (test_mpipdom_scoreboard_modified.1.sm_30.ptx:63) add.s64 %rd9, %rd2, %rd8;)
[ZSY][Scoreboard] checkCollision() wid = 0, active_mask = 00000000000000000000000011111111, regnum = 14 20 Warp (warp_id 0, original_warp_id 0) fails scoreboard at cycle 68
before issue: scoreboard contents (sid=0): 
  wid =  0: 6(11111111111111111111111111111111) 20(00000000000000000000000011111111) 
Warp (warp_id 0, original_warp_id 0) has valid instruction ( PC=0x100 (test_mpipdom_scoreboard_modified.1.sm_30.ptx:63) add.s64 %rd9, %rd2, %rd8;)
[ZSY][Scoreboard] checkCollision() wid = 0, active_mask = 00000000000000000000000011111111, regnum = 14 20 Warp (warp_id 0, original_warp_id 0) fails scoreboard at cycle 69
before issue: scoreboard contents (sid=0): 
  wid =  0: 6(11111111111111111111111111111111) 20(00000000000000000000000011111111) 
Warp (warp_id 1, original_warp_id 0) has valid instruction ( PC=0x0c0 (test_mpipdom_scoreboard_modified.1.sm_30.ptx:53) cvt.s64.s32%rd10, %r2;)
[ZSY][Scoreboard] checkCollision() wid = 0, active_mask = 11111111111111111111111100000000, regnum = 6 Warp (warp_id 1, original_warp_id 0) fails scoreboard at cycle 69
before issue: scoreboard contents (sid=0): 
  wid =  0: 6(11111111111111111111111111111111) 20(00000000000000000000000011111111) 
Warp (warp_id 1, original_warp_id 0) has valid instruction ( PC=0x0c0 (test_mpipdom_scoreboard_modified.1.sm_30.ptx:53) cvt.s64.s32%rd10, %r2;)
[ZSY][Scoreboard] checkCollision() wid = 0, active_mask = 11111111111111111111111100000000, regnum = 6 Warp (warp_id 1, original_warp_id 0) fails scoreboard at cycle 70
before issue: scoreboard contents (sid=0): 
  wid =  0: 6(11111111111111111111111111111111) 20(00000000000000000000000011111111) 
Warp (warp_id 0, original_warp_id 0) has valid instruction ( PC=0x100 (test_mpipdom_scoreboard_modified.1.sm_30.ptx:63) add.s64 %rd9, %rd2, %rd8;)
[ZSY][Scoreboard] checkCollision() wid = 0, active_mask = 00000000000000000000000011111111, regnum = 14 20 Warp (warp_id 0, original_warp_id 0) fails scoreboard at cycle 70
before issue: scoreboard contents (sid=0): 
  wid =  0: 6(11111111111111111111111111111111) 20(00000000000000000000000011111111) 
Warp (warp_id 0, original_warp_id 0) has valid instruction ( PC=0x100 (test_mpipdom_scoreboard_modified.1.sm_30.ptx:63) add.s64 %rd9, %rd2, %rd8;)
[ZSY][Scoreboard] checkCollision() wid = 0, active_mask = 00000000000000000000000011111111, regnum = 14 20 Warp (warp_id 0, original_warp_id 0) fails scoreboard at cycle 71
before issue: scoreboard contents (sid=0): 
  wid =  0: 6(11111111111111111111111111111111) 20(00000000000000000000000011111111) 
Warp (warp_id 1, original_warp_id 0) has valid instruction ( PC=0x0c0 (test_mpipdom_scoreboard_modified.1.sm_30.ptx:53) cvt.s64.s32%rd10, %r2;)
[ZSY][Scoreboard] checkCollision() wid = 0, active_mask = 11111111111111111111111100000000, regnum = 6 Warp (warp_id 1, original_warp_id 0) fails scoreboard at cycle 71
[ZSY][Scoreboard] releaseRegister() wid = 0, active_mask = 00000000000000000000000011111111, regnum = 20 at cycle 72
before issue: scoreboard contents (sid=0): 
  wid =  0: 6(11111111111111111111111111111111) 
Warp (warp_id 1, original_warp_id 0) has valid instruction ( PC=0x0c0 (test_mpipdom_scoreboard_modified.1.sm_30.ptx:53) cvt.s64.s32%rd10, %r2;)
[ZSY][Scoreboard] checkCollision() wid = 0, active_mask = 11111111111111111111111100000000, regnum = 6 Warp (warp_id 1, original_warp_id 0) fails scoreboard at cycle 72
before issue: scoreboard contents (sid=0): 
  wid =  0: 6(11111111111111111111111111111111) 
Warp (warp_id 0, original_warp_id 0) has valid instruction ( PC=0x100 (test_mpipdom_scoreboard_modified.1.sm_30.ptx:63) add.s64 %rd9, %rd2, %rd8;)
[ZSY][Scoreboard] checkCollision() wid = 0, active_mask = 00000000000000000000000011111111, regnum = 14 20 21 
Warp (warp_id 0, original_warp_id 0) passes scoreboard at cycle 72
[ZSY][Scoreboard] reserveRegister() wid = 0, active_mask = 00000000000000000000000011111111, regnum = 21
Warp (warp_id 0, original_warp_id 0) issued 1 instructions at cycle 72
after issue: scoreboard contents (sid=0): 
  wid =  0: 6(11111111111111111111111111111111) 21(00000000000000000000000011111111) 
before issue: scoreboard contents (sid=0): 
  wid =  0: 6(11111111111111111111111111111111) 21(00000000000000000000000011111111) 
Warp (warp_id 0, original_warp_id 0) has valid instruction ( PC=0x108 (test_mpipdom_scoreboard_modified.1.sm_30.ptx:64) ld.u32 %r3, [%rd9];)
[ZSY][Scoreboard] checkCollision() wid = 0, active_mask = 00000000000000000000000011111111, regnum = 7 21 Warp (warp_id 0, original_warp_id 0) fails scoreboard at cycle 73
before issue: scoreboard contents (sid=0): 
  wid =  0: 6(11111111111111111111111111111111) 21(00000000000000000000000011111111) 
Warp (warp_id 1, original_warp_id 0) has valid instruction ( PC=0x0c0 (test_mpipdom_scoreboard_modified.1.sm_30.ptx:53) cvt.s64.s32%rd10, %r2;)
[ZSY][Scoreboard] checkCollision() wid = 0, active_mask = 11111111111111111111111100000000, regnum = 6 Warp (warp_id 1, original_warp_id 0) fails scoreboard at cycle 73
before issue: scoreboard contents (sid=0): 
  wid =  0: 6(11111111111111111111111111111111) 21(00000000000000000000000011111111) 
Warp (warp_id 1, original_warp_id 0) has valid instruction ( PC=0x0c0 (test_mpipdom_scoreboard_modified.1.sm_30.ptx:53) cvt.s64.s32%rd10, %r2;)
[ZSY][Scoreboard] checkCollision() wid = 0, active_mask = 11111111111111111111111100000000, regnum = 6 Warp (warp_id 1, original_warp_id 0) fails scoreboard at cycle 74
before issue: scoreboard contents (sid=0): 
  wid =  0: 6(11111111111111111111111111111111) 21(00000000000000000000000011111111) 
Warp (warp_id 0, original_warp_id 0) has valid instruction ( PC=0x108 (test_mpipdom_scoreboard_modified.1.sm_30.ptx:64) ld.u32 %r3, [%rd9];)
[ZSY][Scoreboard] checkCollision() wid = 0, active_mask = 00000000000000000000000011111111, regnum = 7 21 Warp (warp_id 0, original_warp_id 0) fails scoreboard at cycle 74
before issue: scoreboard contents (sid=0): 
  wid =  0: 6(11111111111111111111111111111111) 21(00000000000000000000000011111111) 
Warp (warp_id 0, original_warp_id 0) has valid instruction ( PC=0x108 (test_mpipdom_scoreboard_modified.1.sm_30.ptx:64) ld.u32 %r3, [%rd9];)
[ZSY][Scoreboard] checkCollision() wid = 0, active_mask = 00000000000000000000000011111111, regnum = 7 21 Warp (warp_id 0, original_warp_id 0) fails scoreboard at cycle 75
before issue: scoreboard contents (sid=0): 
  wid =  0: 6(11111111111111111111111111111111) 21(00000000000000000000000011111111) 
Warp (warp_id 1, original_warp_id 0) has valid instruction ( PC=0x0c0 (test_mpipdom_scoreboard_modified.1.sm_30.ptx:53) cvt.s64.s32%rd10, %r2;)
[ZSY][Scoreboard] checkCollision() wid = 0, active_mask = 11111111111111111111111100000000, regnum = 6 Warp (warp_id 1, original_warp_id 0) fails scoreboard at cycle 75
before issue: scoreboard contents (sid=0): 
  wid =  0: 6(11111111111111111111111111111111) 21(00000000000000000000000011111111) 
Warp (warp_id 1, original_warp_id 0) has valid instruction ( PC=0x0c0 (test_mpipdom_scoreboard_modified.1.sm_30.ptx:53) cvt.s64.s32%rd10, %r2;)
[ZSY][Scoreboard] checkCollision() wid = 0, active_mask = 11111111111111111111111100000000, regnum = 6 Warp (warp_id 1, original_warp_id 0) fails scoreboard at cycle 76
before issue: scoreboard contents (sid=0): 
  wid =  0: 6(11111111111111111111111111111111) 21(00000000000000000000000011111111) 
Warp (warp_id 0, original_warp_id 0) has valid instruction ( PC=0x108 (test_mpipdom_scoreboard_modified.1.sm_30.ptx:64) ld.u32 %r3, [%rd9];)
[ZSY][Scoreboard] checkCollision() wid = 0, active_mask = 00000000000000000000000011111111, regnum = 7 21 Warp (warp_id 0, original_warp_id 0) fails scoreboard at cycle 76
before issue: scoreboard contents (sid=0): 
  wid =  0: 6(11111111111111111111111111111111) 21(00000000000000000000000011111111) 
Warp (warp_id 0, original_warp_id 0) has valid instruction ( PC=0x108 (test_mpipdom_scoreboard_modified.1.sm_30.ptx:64) ld.u32 %r3, [%rd9];)
[ZSY][Scoreboard] checkCollision() wid = 0, active_mask = 00000000000000000000000011111111, regnum = 7 21 Warp (warp_id 0, original_warp_id 0) fails scoreboard at cycle 77
before issue: scoreboard contents (sid=0): 
  wid =  0: 6(11111111111111111111111111111111) 21(00000000000000000000000011111111) 
Warp (warp_id 1, original_warp_id 0) has valid instruction ( PC=0x0c0 (test_mpipdom_scoreboard_modified.1.sm_30.ptx:53) cvt.s64.s32%rd10, %r2;)
[ZSY][Scoreboard] checkCollision() wid = 0, active_mask = 11111111111111111111111100000000, regnum = 6 Warp (warp_id 1, original_warp_id 0) fails scoreboard at cycle 77
before issue: scoreboard contents (sid=0): 
  wid =  0: 6(11111111111111111111111111111111) 21(00000000000000000000000011111111) 
Warp (warp_id 1, original_warp_id 0) has valid instruction ( PC=0x0c0 (test_mpipdom_scoreboard_modified.1.sm_30.ptx:53) cvt.s64.s32%rd10, %r2;)
[ZSY][Scoreboard] checkCollision() wid = 0, active_mask = 11111111111111111111111100000000, regnum = 6 Warp (warp_id 1, original_warp_id 0) fails scoreboard at cycle 78
before issue: scoreboard contents (sid=0): 
  wid =  0: 6(11111111111111111111111111111111) 21(00000000000000000000000011111111) 
Warp (warp_id 0, original_warp_id 0) has valid instruction ( PC=0x108 (test_mpipdom_scoreboard_modified.1.sm_30.ptx:64) ld.u32 %r3, [%rd9];)
[ZSY][Scoreboard] checkCollision() wid = 0, active_mask = 00000000000000000000000011111111, regnum = 7 21 Warp (warp_id 0, original_warp_id 0) fails scoreboard at cycle 78
before issue: scoreboard contents (sid=0): 
  wid =  0: 6(11111111111111111111111111111111) 21(00000000000000000000000011111111) 
Warp (warp_id 0, original_warp_id 0) has valid instruction ( PC=0x108 (test_mpipdom_scoreboard_modified.1.sm_30.ptx:64) ld.u32 %r3, [%rd9];)
[ZSY][Scoreboard] checkCollision() wid = 0, active_mask = 00000000000000000000000011111111, regnum = 7 21 Warp (warp_id 0, original_warp_id 0) fails scoreboard at cycle 79
before issue: scoreboard contents (sid=0): 
  wid =  0: 6(11111111111111111111111111111111) 21(00000000000000000000000011111111) 
Warp (warp_id 1, original_warp_id 0) has valid instruction ( PC=0x0c0 (test_mpipdom_scoreboard_modified.1.sm_30.ptx:53) cvt.s64.s32%rd10, %r2;)
[ZSY][Scoreboard] checkCollision() wid = 0, active_mask = 11111111111111111111111100000000, regnum = 6 Warp (warp_id 1, original_warp_id 0) fails scoreboard at cycle 79
before issue: scoreboard contents (sid=0): 
  wid =  0: 6(11111111111111111111111111111111) 21(00000000000000000000000011111111) 
Warp (warp_id 1, original_warp_id 0) has valid instruction ( PC=0x0c0 (test_mpipdom_scoreboard_modified.1.sm_30.ptx:53) cvt.s64.s32%rd10, %r2;)
[ZSY][Scoreboard] checkCollision() wid = 0, active_mask = 11111111111111111111111100000000, regnum = 6 Warp (warp_id 1, original_warp_id 0) fails scoreboard at cycle 80
before issue: scoreboard contents (sid=0): 
  wid =  0: 6(11111111111111111111111111111111) 21(00000000000000000000000011111111) 
Warp (warp_id 0, original_warp_id 0) has valid instruction ( PC=0x108 (test_mpipdom_scoreboard_modified.1.sm_30.ptx:64) ld.u32 %r3, [%rd9];)
[ZSY][Scoreboard] checkCollision() wid = 0, active_mask = 00000000000000000000000011111111, regnum = 7 21 Warp (warp_id 0, original_warp_id 0) fails scoreboard at cycle 80
before issue: scoreboard contents (sid=0): 
  wid =  0: 6(11111111111111111111111111111111) 21(00000000000000000000000011111111) 
Warp (warp_id 0, original_warp_id 0) has valid instruction ( PC=0x108 (test_mpipdom_scoreboard_modified.1.sm_30.ptx:64) ld.u32 %r3, [%rd9];)
[ZSY][Scoreboard] checkCollision() wid = 0, active_mask = 00000000000000000000000011111111, regnum = 7 21 Warp (warp_id 0, original_warp_id 0) fails scoreboard at cycle 81
before issue: scoreboard contents (sid=0): 
  wid =  0: 6(11111111111111111111111111111111) 21(00000000000000000000000011111111) 
Warp (warp_id 1, original_warp_id 0) has valid instruction ( PC=0x0c0 (test_mpipdom_scoreboard_modified.1.sm_30.ptx:53) cvt.s64.s32%rd10, %r2;)
[ZSY][Scoreboard] checkCollision() wid = 0, active_mask = 11111111111111111111111100000000, regnum = 6 Warp (warp_id 1, original_warp_id 0) fails scoreboard at cycle 81
[ZSY][Scoreboard] releaseRegister() wid = 0, active_mask = 00000000000000000000000011111111, regnum = 21 at cycle 82
before issue: scoreboard contents (sid=0): 
  wid =  0: 6(11111111111111111111111111111111) 
Warp (warp_id 1, original_warp_id 0) has valid instruction ( PC=0x0c0 (test_mpipdom_scoreboard_modified.1.sm_30.ptx:53) cvt.s64.s32%rd10, %r2;)
[ZSY][Scoreboard] checkCollision() wid = 0, active_mask = 11111111111111111111111100000000, regnum = 6 Warp (warp_id 1, original_warp_id 0) fails scoreboard at cycle 82
before issue: scoreboard contents (sid=0): 
  wid =  0: 6(11111111111111111111111111111111) 
Warp (warp_id 0, original_warp_id 0) has valid instruction ( PC=0x108 (test_mpipdom_scoreboard_modified.1.sm_30.ptx:64) ld.u32 %r3, [%rd9];)
[ZSY][Scoreboard] checkCollision() wid = 0, active_mask = 00000000000000000000000011111111, regnum = 7 21 
Warp (warp_id 0, original_warp_id 0) passes scoreboard at cycle 82
[ZSY][Scoreboard] reserveRegister() wid = 0, active_mask = 00000000000000000000000011111111, regnum = 7
Warp (warp_id 0, original_warp_id 0) issued 1 instructions at cycle 82
after issue: scoreboard contents (sid=0): 
  wid =  0: 6(11111111111111111111111111111111) 7(00000000000000000000000011111111) 
[ZSY][FETCH] warp 0 (original_warp_id = 0) fetch instructions(pc = 0x110) at cycle 82 and hit
before issue: scoreboard contents (sid=0): 
  wid =  0: 6(11111111111111111111111111111111) 7(00000000000000000000000011111111) 
Warp (warp_id 1, original_warp_id 0) has valid instruction ( PC=0x0c0 (test_mpipdom_scoreboard_modified.1.sm_30.ptx:53) cvt.s64.s32%rd10, %r2;)
[ZSY][Scoreboard] checkCollision() wid = 0, active_mask = 11111111111111111111111100000000, regnum = 6 Warp (warp_id 1, original_warp_id 0) fails scoreboard at cycle 83
before issue: scoreboard contents (sid=0): 
  wid =  0: 6(11111111111111111111111111111111) 7(00000000000000000000000011111111) 
Warp (warp_id 1, original_warp_id 0) has valid instruction ( PC=0x0c0 (test_mpipdom_scoreboard_modified.1.sm_30.ptx:53) cvt.s64.s32%rd10, %r2;)
[ZSY][Scoreboard] checkCollision() wid = 0, active_mask = 11111111111111111111111100000000, regnum = 6 Warp (warp_id 1, original_warp_id 0) fails scoreboard at cycle 84
[...]
total dram writes = 0
min_bank_accesses = 0!
min_chip_accesses = 0!
average mf latency per bank:
dram[0]:     none      none      none      none      none      none      none      none      none      none      none      none      none      none      none      none  
dram[1]:     none      none      none      none      none      none      none      none      none      none      none      none      none      none      none      none  
dram[2]:     none      none      none      none      none      none      none      none      none      none      none      none      none      none      none      none  
dram[3]:     none      none      none      none      none      none      none      none      none      none      none      none      none      none      none      none  
dram[4]:     none      none      none      none      none      none      none      none      none      none      none      none      none      none      none      none  
dram[5]:     none      none      none      none      none      none      none      none      none      none      none      none      none      none      none      none  
maximum mf latency per bank:
dram[0]:        132         0         0         0         0         0         0         0         0         0         0         0         0         0         0         0
dram[1]:        132         0         0         0         0         0         0         0         0         0         0         0         0         0         0         0
dram[2]:        132         0         0         0         0         0         0         0         0         0         0         0         0         0         0         0
dram[3]:          0         0         0         0         0         0         0         0         0         0         0         0         0         0         0         0
dram[4]:          0         0         0         0         0         0         0         0         0         0         0         0         0         0         0         0
dram[5]:          0         0         0         0         0         0         0         0         0         0         0         0         0         0         0         0

Number of Memory Banks Accessed per Memory Operation per Warp (from 0):
0	0	0	0	0	0	0	0	0	0	0	0	0	0	0	0	0	0	0	0	0	0	0	0	0	0	0	0	0	0	0	0	0	0	0	0	0	0	0	0	0	0	0	0	0	0	0	0	0	0	0	0	0	0	0	0	0	0	0	0	0	0	0	0	0	0	0	0	0	0	0	0	0	0	0	0	0	0	0	0	0	0	0	0	0	0	0	0	0	0	0	0	0	0	0	0	
Average # of Memory Banks Accessed per Memory Operation per Warp=-nan

position of mrq chosen
0	0	0	0	0	0	0	0	0	0	0	0	0	0	0	0	0	0	0	0	0	0	0	0	0	0	0	0	0	0	0	0	0	0	0	0	0	0	0	0	0	0	0	0	0	0	0	0	0	0	0	0	0	0	0	0	0	0	0	0	0	0	0	0	

average position of mrq chosen = -nan
Memory Partition 0: 
Cache L2_bank_000:
MSHR contents

Cache L2_bank_001:
MSHR contents

In Dram Latency Queue (total = 0): 
DRAM[0]: 16 bks, busW=4 BL=8 CL=12, tRRD=6 tCCD=2, tRCD=12 tRAS=28 tRP=12 tRC=40
n_cmd=843 n_nop=843 n_act=0 n_pre=0 n_ref_event=94573238633920 n_req=0 n_rd=0 n_rd_L2_A=0 n_write=0 n_wr_bk=0 bw_util=0
n_activity=0 dram_eff=-nan
bk0: 0a 843i bk1: 0a 843i bk2: 0a 843i bk3: 0a 843i bk4: 0a 843i bk5: 0a 843i bk6: 0a 843i bk7: 0a 843i bk8: 0a 843i bk9: 0a 843i bk10: 0a 843i bk11: 0a 843i bk12: 0a 843i bk13: 0a 843i bk14: 0a 843i bk15: 0a 843i 

------------------------------------------------------------------------

Row_Buffer_Locality = -nan
Row_Buffer_Locality_read = -nan
Row_Buffer_Locality_write = -nan
Bank_Level_Parallism = -nan
Bank_Level_Parallism_Col = 0.677253
Bank_Level_Parallism_Ready = -nan
write_to_read_ratio_blp_rw_average = 0.000000
GrpLevelPara = 0.000000 

BW Util details:
bwutil = 0.000000 
total_CMD = 843 
util_bw = 0 
Wasted_Col = 0 
Wasted_Row = 0 
Idle = 843 

BW Util Bottlenecks: 
RCDc_limit = 0 
RCDWRc_limit = 0 
WTRc_limit = 0 
RTWc_limit = 0 
CCDLc_limit = 0 
rwq = 0 
CCDLc_limit_alone = 0 
WTRc_limit_alone = 0 
RTWc_limit_alone = 0 

Commands details: 
total_CMD = 843 
n_nop = 843 
Read = 0 
Write = 0 
L2_Alloc = 0 
L2_WB = 0 
n_act = 0 
n_pre = 0 
n_ref = 94573238633920 
n_req = 0 
total_req = 0 

Dual Bus Interface Util: 
issued_total_row = 0 
issued_total_col = 0 
Row_Bus_Util =  0.000000 
CoL_Bus_Util = 0.000000 
Either_Row_CoL_Bus_Util = 0.000000 
Issued_on_Two_Bus_Simul_Util = 0.000000 
issued_two_Eff = -nan 
queue_avg = 0.000000 


dram_util_bins: 0 0 0 0 0 0 0 0 0 0
dram_eff_bins: 0 0 0 0 0 0 0 0 0 0
mrqq: max=0 avg=0
Memory Partition 1: 
Cache L2_bank_002:
MSHR contents

Cache L2_bank_003:
MSHR contents

In Dram Latency Queue (total = 0): 
DRAM[1]: 16 bks, busW=4 BL=8 CL=12, tRRD=6 tCCD=2, tRCD=12 tRAS=28 tRP=12 tRC=40
n_cmd=843 n_nop=843 n_act=0 n_pre=0 n_ref_event=0 n_req=0 n_rd=0 n_rd_L2_A=0 n_write=0 n_wr_bk=0 bw_util=0
n_activity=0 dram_eff=-nan
bk0: 0a 843i bk1: 0a 843i bk2: 0a 843i bk3: 0a 843i bk4: 0a 843i bk5: 0a 843i bk6: 0a 843i bk7: 0a 843i bk8: 0a 843i bk9: 0a 843i bk10: 0a 843i bk11: 0a 843i bk12: 0a 843i bk13: 0a 843i bk14: 0a 843i bk15: 0a 843i 

------------------------------------------------------------------------

Row_Buffer_Locality = -nan
Row_Buffer_Locality_read = -nan
Row_Buffer_Locality_write = -nan
Bank_Level_Parallism = -nan
Bank_Level_Parallism_Col = -nan
Bank_Level_Parallism_Ready = -nan
write_to_read_ratio_blp_rw_average = -nan
GrpLevelPara = -nan 

BW Util details:
bwutil = 0.000000 
total_CMD = 843 
util_bw = 0 
Wasted_Col = 0 
Wasted_Row = 0 
Idle = 843 

BW Util Bottlenecks: 
RCDc_limit = 0 
RCDWRc_limit = 0 
WTRc_limit = 0 
RTWc_limit = 0 
CCDLc_limit = 0 
rwq = 0 
CCDLc_limit_alone = 0 
WTRc_limit_alone = 0 
RTWc_limit_alone = 0 

Commands details: 
total_CMD = 843 
n_nop = 843 
Read = 0 
Write = 0 
L2_Alloc = 0 
L2_WB = 0 
n_act = 0 
n_pre = 0 
n_ref = 0 
n_req = 0 
total_req = 0 

Dual Bus Interface Util: 
issued_total_row = 0 
issued_total_col = 0 
Row_Bus_Util =  0.000000 
CoL_Bus_Util = 0.000000 
Either_Row_CoL_Bus_Util = 0.000000 
Issued_on_Two_Bus_Simul_Util = 0.000000 
issued_two_Eff = -nan 
queue_avg = 0.000000 


dram_util_bins: 0 0 0 0 0 0 0 0 0 0
dram_eff_bins: 0 0 0 0 0 0 0 0 0 0
mrqq: max=0 avg=0
Memory Partition 2: 
Cache L2_bank_004:
MSHR contents

Cache L2_bank_005:
MSHR contents

In Dram Latency Queue (total = 0): 
DRAM[2]: 16 bks, busW=4 BL=8 CL=12, tRRD=6 tCCD=2, tRCD=12 tRAS=28 tRP=12 tRC=40
n_cmd=843 n_nop=843 n_act=0 n_pre=0 n_ref_event=0 n_req=0 n_rd=0 n_rd_L2_A=0 n_write=0 n_wr_bk=0 bw_util=0
n_activity=0 dram_eff=-nan
bk0: 0a 843i bk1: 0a 843i bk2: 0a 843i bk3: 0a 843i bk4: 0a 843i bk5: 0a 843i bk6: 0a 843i bk7: 0a 843i bk8: 0a 843i bk9: 0a 843i bk10: 0a 843i bk11: 0a 843i bk12: 0a 843i bk13: 0a 843i bk14: 0a 843i bk15: 0a 843i 

------------------------------------------------------------------------

Row_Buffer_Locality = -nan
Row_Buffer_Locality_read = -nan
Row_Buffer_Locality_write = -nan
Bank_Level_Parallism = -nan
Bank_Level_Parallism_Col = -nan
Bank_Level_Parallism_Ready = -nan
write_to_read_ratio_blp_rw_average = -nan
GrpLevelPara = -nan 

BW Util details:
bwutil = 0.000000 
total_CMD = 843 
util_bw = 0 
Wasted_Col = 0 
Wasted_Row = 0 
Idle = 843 

BW Util Bottlenecks: 
RCDc_limit = 0 
RCDWRc_limit = 0 
WTRc_limit = 0 
RTWc_limit = 0 
CCDLc_limit = 0 
rwq = 0 
CCDLc_limit_alone = 0 
WTRc_limit_alone = 0 
RTWc_limit_alone = 0 

Commands details: 
total_CMD = 843 
n_nop = 843 
Read = 0 
Write = 0 
L2_Alloc = 0 
L2_WB = 0 
n_act = 0 
n_pre = 0 
n_ref = 0 
n_req = 0 
total_req = 0 

Dual Bus Interface Util: 
issued_total_row = 0 
issued_total_col = 0 
Row_Bus_Util =  0.000000 
CoL_Bus_Util = 0.000000 
Either_Row_CoL_Bus_Util = 0.000000 
Issued_on_Two_Bus_Simul_Util = 0.000000 
issued_two_Eff = -nan 
queue_avg = 0.000000 


dram_util_bins: 0 0 0 0 0 0 0 0 0 0
dram_eff_bins: 0 0 0 0 0 0 0 0 0 0
mrqq: max=0 avg=0
Memory Partition 3: 
Cache L2_bank_006:
MSHR contents

Cache L2_bank_007:
MSHR contents

In Dram Latency Queue (total = 0): 
DRAM[3]: 16 bks, busW=4 BL=8 CL=12, tRRD=6 tCCD=2, tRCD=12 tRAS=28 tRP=12 tRC=40
n_cmd=843 n_nop=843 n_act=0 n_pre=0 n_ref_event=0 n_req=0 n_rd=0 n_rd_L2_A=0 n_write=0 n_wr_bk=0 bw_util=0
n_activity=0 dram_eff=-nan
bk0: 0a 843i bk1: 0a 843i bk2: 0a 843i bk3: 0a 843i bk4: 0a 843i bk5: 0a 843i bk6: 0a 843i bk7: 0a 843i bk8: 0a 843i bk9: 0a 843i bk10: 0a 843i bk11: 0a 843i bk12: 0a 843i bk13: 0a 843i bk14: 0a 843i bk15: 0a 843i 

------------------------------------------------------------------------

Row_Buffer_Locality = -nan
Row_Buffer_Locality_read = -nan
Row_Buffer_Locality_write = -nan
Bank_Level_Parallism = -nan
Bank_Level_Parallism_Col = -nan
Bank_Level_Parallism_Ready = -nan
write_to_read_ratio_blp_rw_average = -nan
GrpLevelPara = -nan 

BW Util details:
bwutil = 0.000000 
total_CMD = 843 
util_bw = 0 
Wasted_Col = 0 
Wasted_Row = 0 
Idle = 843 

BW Util Bottlenecks: 
RCDc_limit = 0 
RCDWRc_limit = 0 
WTRc_limit = 0 
RTWc_limit = 0 
CCDLc_limit = 0 
rwq = 0 
CCDLc_limit_alone = 0 
WTRc_limit_alone = 0 
RTWc_limit_alone = 0 

Commands details: 
total_CMD = 843 
n_nop = 843 
Read = 0 
Write = 0 
L2_Alloc = 0 
L2_WB = 0 
n_act = 0 
n_pre = 0 
n_ref = 0 
n_req = 0 
total_req = 0 

Dual Bus Interface Util: 
issued_total_row = 0 
issued_total_col = 0 
Row_Bus_Util =  0.000000 
CoL_Bus_Util = 0.000000 
Either_Row_CoL_Bus_Util = 0.000000 
Issued_on_Two_Bus_Simul_Util = 0.000000 
issued_two_Eff = -nan 
queue_avg = 0.000000 


dram_util_bins: 0 0 0 0 0 0 0 0 0 0
dram_eff_bins: 0 0 0 0 0 0 0 0 0 0
mrqq: max=0 avg=0
Memory Partition 4: 
Cache L2_bank_008:
MSHR contents

Cache L2_bank_009:
MSHR contents

In Dram Latency Queue (total = 0): 
DRAM[4]: 16 bks, busW=4 BL=8 CL=12, tRRD=6 tCCD=2, tRCD=12 tRAS=28 tRP=12 tRC=40
n_cmd=843 n_nop=843 n_act=0 n_pre=0 n_ref_event=0 n_req=0 n_rd=0 n_rd_L2_A=0 n_write=0 n_wr_bk=0 bw_util=0
n_activity=0 dram_eff=-nan
bk0: 0a 843i bk1: 0a 843i bk2: 0a 843i bk3: 0a 843i bk4: 0a 843i bk5: 0a 843i bk6: 0a 843i bk7: 0a 843i bk8: 0a 843i bk9: 0a 843i bk10: 0a 843i bk11: 0a 843i bk12: 0a 843i bk13: 0a 843i bk14: 0a 843i bk15: 0a 843i 

------------------------------------------------------------------------

Row_Buffer_Locality = -nan
Row_Buffer_Locality_read = -nan
Row_Buffer_Locality_write = -nan
Bank_Level_Parallism = -nan
Bank_Level_Parallism_Col = 1.000000
Bank_Level_Parallism_Ready = -nan
write_to_read_ratio_blp_rw_average = 0.000000
GrpLevelPara = 0.000000 

BW Util details:
bwutil = 0.000000 
total_CMD = 843 
util_bw = 0 
Wasted_Col = 0 
Wasted_Row = 0 
Idle = 843 

BW Util Bottlenecks: 
RCDc_limit = 0 
RCDWRc_limit = 0 
WTRc_limit = 0 
RTWc_limit = 0 
CCDLc_limit = 0 
rwq = 0 
CCDLc_limit_alone = 0 
WTRc_limit_alone = 0 
RTWc_limit_alone = 0 

Commands details: 
total_CMD = 843 
n_nop = 843 
Read = 0 
Write = 0 
L2_Alloc = 0 
L2_WB = 0 
n_act = 0 
n_pre = 0 
n_ref = 0 
n_req = 0 
total_req = 0 

Dual Bus Interface Util: 
issued_total_row = 0 
issued_total_col = 0 
Row_Bus_Util =  0.000000 
CoL_Bus_Util = 0.000000 
Either_Row_CoL_Bus_Util = 0.000000 
Issued_on_Two_Bus_Simul_Util = 0.000000 
issued_two_Eff = -nan 
queue_avg = 0.000000 


dram_util_bins: 0 0 0 0 0 0 0 0 0 0
dram_eff_bins: 0 0 0 0 0 0 0 0 0 0
mrqq: max=0 avg=0
Memory Partition 5: 
Cache L2_bank_010:
MSHR contents

Cache L2_bank_011:
MSHR contents

In Dram Latency Queue (total = 0): 
DRAM[5]: 16 bks, busW=4 BL=8 CL=12, tRRD=6 tCCD=2, tRCD=12 tRAS=28 tRP=12 tRC=40
n_cmd=843 n_nop=843 n_act=0 n_pre=0 n_ref_event=0 n_req=0 n_rd=0 n_rd_L2_A=0 n_write=0 n_wr_bk=0 bw_util=0
n_activity=0 dram_eff=-nan
bk0: 0a 843i bk1: 0a 843i bk2: 0a 843i bk3: 0a 843i bk4: 0a 843i bk5: 0a 843i bk6: 0a 843i bk7: 0a 843i bk8: 0a 843i bk9: 0a 843i bk10: 0a 843i bk11: 0a 843i bk12: 0a 843i bk13: 0a 843i bk14: 0a 843i bk15: 0a 843i 

------------------------------------------------------------------------

Row_Buffer_Locality = -nan
Row_Buffer_Locality_read = -nan
Row_Buffer_Locality_write = -nan
Bank_Level_Parallism = -nan
Bank_Level_Parallism_Col = -nan
Bank_Level_Parallism_Ready = -nan
write_to_read_ratio_blp_rw_average = -nan
GrpLevelPara = -nan 

BW Util details:
bwutil = 0.000000 
total_CMD = 843 
util_bw = 0 
Wasted_Col = 0 
Wasted_Row = 0 
Idle = 843 

BW Util Bottlenecks: 
RCDc_limit = 0 
RCDWRc_limit = 0 
WTRc_limit = 0 
RTWc_limit = 0 
CCDLc_limit = 0 
rwq = 0 
CCDLc_limit_alone = 0 
WTRc_limit_alone = 0 
RTWc_limit_alone = 0 

Commands details: 
total_CMD = 843 
n_nop = 843 
Read = 0 
Write = 0 
L2_Alloc = 0 
L2_WB = 0 
n_act = 0 
n_pre = 0 
n_ref = 0 
n_req = 0 
total_req = 0 

Dual Bus Interface Util: 
issued_total_row = 0 
issued_total_col = 0 
Row_Bus_Util =  0.000000 
CoL_Bus_Util = 0.000000 
Either_Row_CoL_Bus_Util = 0.000000 
Issued_on_Two_Bus_Simul_Util = 0.000000 
issued_two_Eff = -nan 
queue_avg = 0.000000 


dram_util_bins: 0 0 0 0 0 0 0 0 0 0
dram_eff_bins: 0 0 0 0 0 0 0 0 0 0
mrqq: max=0 avg=0

========= L2 cache stats =========
L2_cache_bank[0]: Access = 4, Miss = 0, Miss_rate = 0.000, Pending_hits = 0, Reservation_fails = 0
L2_cache_bank[1]: Access = 0, Miss = 0, Miss_rate = -nan, Pending_hits = 0, Reservation_fails = 0
L2_cache_bank[2]: Access = 8, Miss = 0, Miss_rate = 0.000, Pending_hits = 0, Reservation_fails = 0
L2_cache_bank[3]: Access = 0, Miss = 0, Miss_rate = -nan, Pending_hits = 0, Reservation_fails = 0
L2_cache_bank[4]: Access = 4, Miss = 4, Miss_rate = 1.000, Pending_hits = 0, Reservation_fails = 0
L2_cache_bank[5]: Access = 0, Miss = 0, Miss_rate = -nan, Pending_hits = 0, Reservation_fails = 0
L2_cache_bank[6]: Access = 0, Miss = 0, Miss_rate = -nan, Pending_hits = 0, Reservation_fails = 0
L2_cache_bank[7]: Access = 0, Miss = 0, Miss_rate = -nan, Pending_hits = 0, Reservation_fails = 0
L2_cache_bank[8]: Access = 0, Miss = 0, Miss_rate = -nan, Pending_hits = 0, Reservation_fails = 0
L2_cache_bank[9]: Access = 0, Miss = 0, Miss_rate = -nan, Pending_hits = 0, Reservation_fails = 0
L2_cache_bank[10]: Access = 0, Miss = 0, Miss_rate = -nan, Pending_hits = 0, Reservation_fails = 0
L2_cache_bank[11]: Access = 0, Miss = 0, Miss_rate = -nan, Pending_hits = 0, Reservation_fails = 0
L2_total_cache_accesses = 16
L2_total_cache_misses = 4
L2_total_cache_miss_rate = 0.2500
L2_total_cache_pending_hits = 0
L2_total_cache_reservation_fails = 0
L2_total_cache_breakdown:
	L2_cache_stats_breakdown[GLOBAL_ACC_R][HIT] = 12
	L2_cache_stats_breakdown[GLOBAL_ACC_R][HIT_RESERVED] = 0
	L2_cache_stats_breakdown[GLOBAL_ACC_R][MISS] = 0
	L2_cache_stats_breakdown[GLOBAL_ACC_R][RESERVATION_FAIL] = 0
	L2_cache_stats_breakdown[GLOBAL_ACC_R][SECTOR_MISS] = 0
	L2_cache_stats_breakdown[LOCAL_ACC_R][HIT] = 0
	L2_cache_stats_breakdown[LOCAL_ACC_R][HIT_RESERVED] = 0
	L2_cache_stats_breakdown[LOCAL_ACC_R][MISS] = 0
	L2_cache_stats_breakdown[LOCAL_ACC_R][RESERVATION_FAIL] = 0
	L2_cache_stats_breakdown[LOCAL_ACC_R][SECTOR_MISS] = 0
	L2_cache_stats_breakdown[CONST_ACC_R][HIT] = 0
	L2_cache_stats_breakdown[CONST_ACC_R][HIT_RESERVED] = 0
	L2_cache_stats_breakdown[CONST_ACC_R][MISS] = 0
	L2_cache_stats_breakdown[CONST_ACC_R][RESERVATION_FAIL] = 0
	L2_cache_stats_breakdown[CONST_ACC_R][SECTOR_MISS] = 0
	L2_cache_stats_breakdown[TEXTURE_ACC_R][HIT] = 0
	L2_cache_stats_breakdown[TEXTURE_ACC_R][HIT_RESERVED] = 0
	L2_cache_stats_breakdown[TEXTURE_ACC_R][MISS] = 0
	L2_cache_stats_breakdown[TEXTURE_ACC_R][RESERVATION_FAIL] = 0
	L2_cache_stats_breakdown[TEXTURE_ACC_R][SECTOR_MISS] = 0
	L2_cache_stats_breakdown[GLOBAL_ACC_W][HIT] = 0
	L2_cache_stats_breakdown[GLOBAL_ACC_W][HIT_RESERVED] = 0
	L2_cache_stats_breakdown[GLOBAL_ACC_W][MISS] = 1
	L2_cache_stats_breakdown[GLOBAL_ACC_W][RESERVATION_FAIL] = 0
	L2_cache_stats_breakdown[GLOBAL_ACC_W][SECTOR_MISS] = 3
	L2_cache_stats_breakdown[LOCAL_ACC_W][HIT] = 0
	L2_cache_stats_breakdown[LOCAL_ACC_W][HIT_RESERVED] = 0
	L2_cache_stats_breakdown[LOCAL_ACC_W][MISS] = 0
	L2_cache_stats_breakdown[LOCAL_ACC_W][RESERVATION_FAIL] = 0
	L2_cache_stats_breakdown[LOCAL_ACC_W][SECTOR_MISS] = 0
	L2_cache_stats_breakdown[L1_WRBK_ACC][HIT] = 0
	L2_cache_stats_breakdown[L1_WRBK_ACC][HIT_RESERVED] = 0
	L2_cache_stats_breakdown[L1_WRBK_ACC][MISS] = 0
	L2_cache_stats_breakdown[L1_WRBK_ACC][RESERVATION_FAIL] = 0
	L2_cache_stats_breakdown[L1_WRBK_ACC][SECTOR_MISS] = 0
	L2_cache_stats_breakdown[L2_WRBK_ACC][HIT] = 0
	L2_cache_stats_breakdown[L2_WRBK_ACC][HIT_RESERVED] = 0
	L2_cache_stats_breakdown[L2_WRBK_ACC][MISS] = 0
	L2_cache_stats_breakdown[L2_WRBK_ACC][RESERVATION_FAIL] = 0
	L2_cache_stats_breakdown[L2_WRBK_ACC][SECTOR_MISS] = 0
	L2_cache_stats_breakdown[INST_ACC_R][HIT] = 0
	L2_cache_stats_breakdown[INST_ACC_R][HIT_RESERVED] = 0
	L2_cache_stats_breakdown[INST_ACC_R][MISS] = 0
	L2_cache_stats_breakdown[INST_ACC_R][RESERVATION_FAIL] = 0
	L2_cache_stats_breakdown[INST_ACC_R][SECTOR_MISS] = 0
	L2_cache_stats_breakdown[L1_WR_ALLOC_R][HIT] = 0
	L2_cache_stats_breakdown[L1_WR_ALLOC_R][HIT_RESERVED] = 0
	L2_cache_stats_breakdown[L1_WR_ALLOC_R][MISS] = 0
	L2_cache_stats_breakdown[L1_WR_ALLOC_R][RESERVATION_FAIL] = 0
	L2_cache_stats_breakdown[L1_WR_ALLOC_R][SECTOR_MISS] = 0
	L2_cache_stats_breakdown[L2_WR_ALLOC_R][HIT] = 0
	L2_cache_stats_breakdown[L2_WR_ALLOC_R][HIT_RESERVED] = 0
	L2_cache_stats_breakdown[L2_WR_ALLOC_R][MISS] = 0
	L2_cache_stats_breakdown[L2_WR_ALLOC_R][RESERVATION_FAIL] = 0
	L2_cache_stats_breakdown[L2_WR_ALLOC_R][SECTOR_MISS] = 0
	L2_cache_stats_breakdown[GLOBAL_ACC_R][TOTAL_ACCESS] = 12
	L2_cache_stats_breakdown[GLOBAL_ACC_W][TOTAL_ACCESS] = 4
L2_total_cache_reservation_fail_breakdown:
L2_cache_data_port_util = 0.002
L2_cache_fill_port_util = 0.000

icnt_total_pkts_mem_to_simt=16
icnt_total_pkts_simt_to_mem=7
LD_mem_lat_dist  0 0 0 0 0 0 0 0 0 0 0 0 0 0 0 0 0 0 0 0 0 0 0 0 0 0 0
ST_mem_lat_dist  0 0 0 0 0 0 0 0 0 0 0 0 0 0 0 0 0 0 0 0 0 0 0 0 0 0 0
----------------------------Interconnect-DETAILS--------------------------------
Class 0:
Packet latency average = 5.15
	minimum = 5
	maximum = 8
Network latency average = 5.15
	minimum = 5
	maximum = 8
Slowest packet = 15
Flit latency average = 5
	minimum = 5
	maximum = 5
Slowest flit = 0
Fragmentation average = 0
	minimum = 0
	maximum = 0
Injected packet rate average = 0.00115922
	minimum = 0 (at node 1)
	maximum = 0.0125196 (at node 17)
Accepted packet rate average = 0.00115922
	minimum = 0 (at node 1)
	maximum = 0.0250391 (at node 0)
Injected flit rate average = 0.0013331
	minimum = 0 (at node 1)
	maximum = 0.0125196 (at node 17)
Accepted flit rate average= 0.0013331
	minimum = 0 (at node 1)
	maximum = 0.0250391 (at node 0)
Injected packet length average = 1.15
Accepted packet length average = 1.15
Total in-flight flits = 0 (0 measured)
====== Overall Traffic Statistics ======
====== Traffic class 0 ======
Packet latency average = 5.15 (1 samples)
	minimum = 5 (1 samples)
	maximum = 8 (1 samples)
Network latency average = 5.15 (1 samples)
	minimum = 5 (1 samples)
	maximum = 8 (1 samples)
Flit latency average = 5 (1 samples)
	minimum = 5 (1 samples)
	maximum = 5 (1 samples)
Fragmentation average = 0 (1 samples)
	minimum = 0 (1 samples)
	maximum = 0 (1 samples)
Injected packet rate average = 0.00115922 (1 samples)
	minimum = 0 (1 samples)
	maximum = 0.0125196 (1 samples)
Accepted packet rate average = 0.00115922 (1 samples)
	minimum = 0 (1 samples)
	maximum = 0.0250391 (1 samples)
Injected flit rate average = 0.0013331 (1 samples)
	minimum = 0 (1 samples)
	maximum = 0.0125196 (1 samples)
Accepted flit rate average = 0.0013331 (1 samples)
	minimum = 0 (1 samples)
	maximum = 0.0250391 (1 samples)
Injected packet size average = 1.15 (1 samples)
Accepted packet size average = 1.15 (1 samples)
Hops average = 1 (1 samples)
----------------------------END-of-Interconnect-DETAILS-------------------------


gpgpu_simulation_time = 0 days, 0 hrs, 0 min, 1 sec (1 sec)
gpgpu_simulation_rate = 728 (inst/sec)
gpgpu_simulation_rate = 639 (cycle/sec)
gpgpu_silicon_slowdown = 1095461x
Copy output data from CUDA device to the host memory
10032 10034 10036 10038 10040 10042 10044 10046 10040 10041 10042 10043 10044 10045 10046 10047 10048 10049 10050 10051 10052 10053 10054 10055 10056 10057 10058 10059 10060 10061 10062 10063 
Done
GPGPU-Sim: *** exit detected ***
