

        *** GPGPU-Sim Simulator Version 4.0.0  [build gpgpu-sim_git-commit-dd0119ef5d1c64cfdd3df1c3339d3889f183b0a7_modified_2.0] ***


GPGPU-Sim PTX: simulation mode 0 (can change with PTX_SIM_MODE_FUNC environment variable:
               1=functional simulation only, 0=detailed performance simulator)
GPGPU-Sim PTX: overriding embedded ptx with ptx file (PTX_SIM_USE_PTX_FILE is set)
GPGPU-Sim: Configuration options:

-save_embedded_ptx                      0 # saves ptx files embedded in binary as <n>.ptx
-keep                                   0 # keep intermediate files created by GPGPU-Sim when interfacing with external programs
-gpgpu_ptx_save_converted_ptxplus                    0 # Saved converted ptxplus to a file
-gpgpu_occupancy_sm_number                   20 # The SM number to pass to ptxas when getting register usage for computing GPU occupancy. This parameter is required in the config.
-ptx_opcode_latency_int      4,13,4,5,145,32 # Opcode latencies for integers <ADD,MAX,MUL,MAD,DIV,SHFL>Default 1,1,19,25,145,32
-ptx_opcode_latency_fp          4,13,4,5,39 # Opcode latencies for single precision floating points <ADD,MAX,MUL,MAD,DIV>Default 1,1,1,1,30
-ptx_opcode_latency_dp         8,19,8,8,330 # Opcode latencies for double precision floating points <ADD,MAX,MUL,MAD,DIV>Default 8,8,8,8,335
-ptx_opcode_latency_sfu                    8 # Opcode latencies for SFU instructionsDefault 8
-ptx_opcode_latency_tesnor                   64 # Opcode latencies for Tensor instructionsDefault 64
-ptx_opcode_initiation_int          1,2,2,1,8,4 # Opcode initiation intervals for integers <ADD,MAX,MUL,MAD,DIV,SHFL>Default 1,1,4,4,32,4
-ptx_opcode_initiation_fp            1,2,1,1,4 # Opcode initiation intervals for single precision floating points <ADD,MAX,MUL,MAD,DIV>Default 1,1,1,1,5
-ptx_opcode_initiation_dp         8,16,8,8,130 # Opcode initiation intervals for double precision floating points <ADD,MAX,MUL,MAD,DIV>Default 8,8,8,8,130
-ptx_opcode_initiation_sfu                    8 # Opcode initiation intervals for sfu instructionsDefault 8
-ptx_opcode_initiation_tensor                   64 # Opcode initiation intervals for tensor instructionsDefault 64
-cdp_latency         7200,8000,100,12000,1600 # CDP API latency <cudaStreamCreateWithFlags, cudaGetParameterBufferV2_init_perWarp, cudaGetParameterBufferV2_perKernel, cudaLaunchDeviceV2_init_perWarp, cudaLaunchDevicV2_perKernel>Default 7200,8000,100,12000,1600
-network_mode                           1 # Interconnection network mode
-inter_config_file   config_fermi_islip.icnt # Interconnection network config file
-icnt_in_buffer_limit                   64 # in_buffer_limit
-icnt_out_buffer_limit                   64 # out_buffer_limit
-icnt_subnets                           2 # subnets
-icnt_arbiter_algo                      1 # arbiter_algo
-icnt_verbose                           0 # inct_verbose
-icnt_grant_cycles                      1 # grant_cycles
-gpgpu_ptx_use_cuobjdump                    1 # Use cuobjdump to extract ptx and sass from binaries
-gpgpu_experimental_lib_support                    0 # Try to extract code from cuda libraries [Broken because of unknown cudaGetExportTable]
-checkpoint_option                      0 #  checkpointing flag (0 = no checkpoint)
-checkpoint_kernel                      1 #  checkpointing during execution of which kernel (1- 1st kernel)
-checkpoint_CTA                         0 #  checkpointing after # of CTA (< less than total CTA)
-resume_option                          0 #  resume flag (0 = no resume)
-resume_kernel                          0 #  Resume from which kernel (1= 1st kernel)
-resume_CTA                             0 #  resume from which CTA 
-checkpoint_CTA_t                       0 #  resume from which CTA 
-checkpoint_insn_Y                      0 #  resume from which CTA 
-gpgpu_ptx_convert_to_ptxplus                    0 # Convert SASS (native ISA) to ptxplus and run ptxplus
-gpgpu_ptx_force_max_capability                   20 # Force maximum compute capability
-gpgpu_ptx_inst_debug_to_file                    0 # Dump executed instructions' debug information to file
-gpgpu_ptx_inst_debug_file       inst_debug.txt # Executed instructions' debug output file
-gpgpu_ptx_inst_debug_thread_uid                    1 # Thread UID for executed instructions' debug output
-gpgpu_simd_model                       1 # 1 = post-dominator
-gpgpu_shader_core_pipeline              1536:32 # shader core pipeline config, i.e., {<nthread>:<warpsize>}
-gpgpu_tex_cache:l1  N:4:128:24,L:R:m:N:L,T:128:4,128:2 # per-shader L1 texture cache  (READ-ONLY) config  {<nsets>:<bsize>:<assoc>,<rep>:<wr>:<alloc>:<wr_alloc>,<mshr>:<N>:<merge>,<mq>:<rf>}
-gpgpu_const_cache:l1 N:64:64:2,L:R:f:N:L,S:2:32,4 # per-shader L1 constant memory cache  (READ-ONLY) config  {<nsets>:<bsize>:<assoc>,<rep>:<wr>:<alloc>:<wr_alloc>,<mshr>:<N>:<merge>,<mq>} 
-gpgpu_cache:il1     N:4:128:4,L:R:f:N:L,S:2:32,4 # shader L1 instruction cache config  {<nsets>:<bsize>:<assoc>,<rep>:<wr>:<alloc>:<wr_alloc>,<mshr>:<N>:<merge>,<mq>} 
-gpgpu_cache:dl1     N:32:128:4,L:L:m:N:H,S:64:8,8 # per-shader L1 data cache config  {<nsets>:<bsize>:<assoc>,<rep>:<wr>:<alloc>:<wr_alloc>,<mshr>:<N>:<merge>,<mq> | none}
-gpgpu_l1_banks                         1 # The number of L1 cache banks
-gpgpu_l1_banks_byte_interleaving                   32 # l1 banks byte interleaving granularity
-gpgpu_l1_banks_hashing_function                    0 # l1 banks hashing function
-gpgpu_l1_latency                      35 # L1 Hit Latency
-gpgpu_smem_latency                    26 # smem Latency
-gpgpu_cache:dl1PrefL1                 none # per-shader L1 data cache config  {<nsets>:<bsize>:<assoc>,<rep>:<wr>:<alloc>:<wr_alloc>,<mshr>:<N>:<merge>,<mq> | none}
-gpgpu_cache:dl1PrefShared                 none # per-shader L1 data cache config  {<nsets>:<bsize>:<assoc>,<rep>:<wr>:<alloc>:<wr_alloc>,<mshr>:<N>:<merge>,<mq> | none}
-gpgpu_gmem_skip_L1D                    0 # global memory access skip L1D cache (implements -Xptxas -dlcm=cg, default=no skip)
-gpgpu_perfect_mem                      0 # enable perfect memory mode (no cache miss)
-n_regfile_gating_group                    4 # group of lanes that should be read/written together)
-gpgpu_clock_gated_reg_file                    0 # enable clock gated reg file for power calculations
-gpgpu_clock_gated_lanes                    0 # enable clock gated lanes for power calculations
-gpgpu_shader_registers                32768 # Number of registers per shader core. Limits number of concurrent CTAs. (default 8192)
-gpgpu_registers_per_block                 8192 # Maximum number of registers per CTA. (default 8192)
-gpgpu_ignore_resources_limitation                    0 # gpgpu_ignore_resources_limitation (default 0)
-gpgpu_shader_cta                       8 # Maximum number of concurrent CTAs in shader (default 8)
-gpgpu_num_cta_barriers                   16 # Maximum number of named barriers per CTA (default 16)
-gpgpu_n_clusters                      15 # number of processing clusters
-gpgpu_n_cores_per_cluster                    1 # number of simd cores per cluster
-gpgpu_n_cluster_ejection_buffer_size                   32 # number of packets in ejection buffer
-gpgpu_n_ldst_response_buffer_size                    2 # number of response packets in ld/st unit ejection buffer
-gpgpu_shmem_per_block                49152 # Size of shared memory per thread block or CTA (default 48kB)
-gpgpu_shmem_size                   49152 # Size of shared memory per shader core (default 16kB)
-gpgpu_adaptive_cache_config                    0 # adaptive_cache_config
-gpgpu_shmem_sizeDefault                49152 # Size of shared memory per shader core (default 16kB)
-gpgpu_shmem_size_PrefL1                16384 # Size of shared memory per shader core (default 16kB)
-gpgpu_shmem_size_PrefShared                16384 # Size of shared memory per shader core (default 16kB)
-gpgpu_shmem_num_banks                   32 # Number of banks in the shared memory in each shader core (default 16)
-gpgpu_shmem_limited_broadcast                    0 # Limit shared memory to do one broadcast per cycle (default on)
-gpgpu_shmem_warp_parts                    1 # Number of portions a warp is divided into for shared memory bank conflict check 
-gpgpu_mem_unit_ports                    1 # The number of memory transactions allowed per core cycle
-gpgpu_shmem_warp_parts                    1 # Number of portions a warp is divided into for shared memory bank conflict check 
-gpgpu_warpdistro_shader                   -1 # Specify which shader core to collect the warp size distribution from
-gpgpu_warp_issue_shader                    0 # Specify which shader core to collect the warp issue distribution from
-gpgpu_local_mem_map                    1 # Mapping from local memory space address to simulated GPU physical address space (default = enabled)
-gpgpu_num_reg_banks                   16 # Number of register banks (default = 8)
-gpgpu_reg_bank_use_warp_id                    0 # Use warp ID in mapping registers to banks (default = off)
-gpgpu_sub_core_model                    0 # Sub Core Volta/Pascal model (default = off)
-gpgpu_enable_specialized_operand_collector                    1 # enable_specialized_operand_collector
-gpgpu_operand_collector_num_units_sp                    6 # number of collector units (default = 4)
-gpgpu_operand_collector_num_units_dp                    0 # number of collector units (default = 0)
-gpgpu_operand_collector_num_units_sfu                    8 # number of collector units (default = 4)
-gpgpu_operand_collector_num_units_int                    0 # number of collector units (default = 0)
-gpgpu_operand_collector_num_units_tensor_core                    4 # number of collector units (default = 4)
-gpgpu_operand_collector_num_units_mem                    2 # number of collector units (default = 2)
-gpgpu_operand_collector_num_units_gen                    0 # number of collector units (default = 0)
-gpgpu_operand_collector_num_in_ports_sp                    2 # number of collector unit in ports (default = 1)
-gpgpu_operand_collector_num_in_ports_dp                    0 # number of collector unit in ports (default = 0)
-gpgpu_operand_collector_num_in_ports_sfu                    1 # number of collector unit in ports (default = 1)
-gpgpu_operand_collector_num_in_ports_int                    0 # number of collector unit in ports (default = 0)
-gpgpu_operand_collector_num_in_ports_tensor_core                    1 # number of collector unit in ports (default = 1)
-gpgpu_operand_collector_num_in_ports_mem                    1 # number of collector unit in ports (default = 1)
-gpgpu_operand_collector_num_in_ports_gen                    0 # number of collector unit in ports (default = 0)
-gpgpu_operand_collector_num_out_ports_sp                    2 # number of collector unit in ports (default = 1)
-gpgpu_operand_collector_num_out_ports_dp                    0 # number of collector unit in ports (default = 0)
-gpgpu_operand_collector_num_out_ports_sfu                    1 # number of collector unit in ports (default = 1)
-gpgpu_operand_collector_num_out_ports_int                    0 # number of collector unit in ports (default = 0)
-gpgpu_operand_collector_num_out_ports_tensor_core                    1 # number of collector unit in ports (default = 1)
-gpgpu_operand_collector_num_out_ports_mem                    1 # number of collector unit in ports (default = 1)
-gpgpu_operand_collector_num_out_ports_gen                    0 # number of collector unit in ports (default = 0)
-gpgpu_coalesce_arch                   20 # Coalescing arch (GT200 = 13, Fermi = 20)
-gpgpu_num_sched_per_core                    2 # Number of warp schedulers per core
-gpgpu_max_insn_issue_per_warp                    1 # Max number of instructions that can be issued per warp in one cycle by scheduler (either 1 or 2)
-gpgpu_dual_issue_diff_exec_units                    1 # should dual issue use two different execution unit resources (Default = 1)
-gpgpu_simt_core_sim_order                    1 # Select the simulation order of cores in a cluster (0=Fix, 1=Round-Robin)
-gpgpu_pipeline_widths 2,0,0,1,1,2,0,0,1,1,2 # Pipeline widths ID_OC_SP,ID_OC_DP,ID_OC_INT,ID_OC_SFU,ID_OC_MEM,OC_EX_SP,OC_EX_DP,OC_EX_INT,OC_EX_SFU,OC_EX_MEM,EX_WB,ID_OC_TENSOR_CORE,OC_EX_TENSOR_CORE
-gpgpu_tensor_core_avail                    0 # Tensor Core Available (default=0)
-gpgpu_num_sp_units                     2 # Number of SP units (default=1)
-gpgpu_num_dp_units                     0 # Number of DP units (default=0)
-gpgpu_num_int_units                    0 # Number of INT units (default=0)
-gpgpu_num_sfu_units                    1 # Number of SF units (default=1)
-gpgpu_num_tensor_core_units                    0 # Number of tensor_core units (default=1)
-gpgpu_num_mem_units                    1 # Number if ldst units (default=1) WARNING: not hooked up to anything
-gpgpu_scheduler                      gto # Scheduler configuration: < lrr | gto | two_level_active > If two_level_active:<num_active_warps>:<inner_prioritization>:<outer_prioritization>For complete list of prioritization values see shader.h enum scheduler_prioritization_typeDefault: gto
-gpgpu_concurrent_kernel_sm                    0 # Support concurrent kernels on a SM (default = disabled)
-gpgpu_perfect_inst_const_cache                    0 # perfect inst and const cache mode, so all inst and const hits in the cache(default = disabled)
-gpgpu_inst_fetch_throughput                    1 # the number of fetched intruction per warp each cycle
-gpgpu_reg_file_port_throughput                    1 # the number ports of the register file
-specialized_unit_1         0,4,4,4,4,BRA # specialized unit config {<enabled>,<num_units>:<latency>:<initiation>,<ID_OC_SPEC>:<OC_EX_SPEC>,<NAME>}
-specialized_unit_2         0,4,4,4,4,BRA # specialized unit config {<enabled>,<num_units>:<latency>:<initiation>,<ID_OC_SPEC>:<OC_EX_SPEC>,<NAME>}
-specialized_unit_3         0,4,4,4,4,BRA # specialized unit config {<enabled>,<num_units>:<latency>:<initiation>,<ID_OC_SPEC>:<OC_EX_SPEC>,<NAME>}
-specialized_unit_4         0,4,4,4,4,BRA # specialized unit config {<enabled>,<num_units>:<latency>:<initiation>,<ID_OC_SPEC>:<OC_EX_SPEC>,<NAME>}
-specialized_unit_5         0,4,4,4,4,BRA # specialized unit config {<enabled>,<num_units>:<latency>:<initiation>,<ID_OC_SPEC>:<OC_EX_SPEC>,<NAME>}
-specialized_unit_6         0,4,4,4,4,BRA # specialized unit config {<enabled>,<num_units>:<latency>:<initiation>,<ID_OC_SPEC>:<OC_EX_SPEC>,<NAME>}
-specialized_unit_7         0,4,4,4,4,BRA # specialized unit config {<enabled>,<num_units>:<latency>:<initiation>,<ID_OC_SPEC>:<OC_EX_SPEC>,<NAME>}
-specialized_unit_8         0,4,4,4,4,BRA # specialized unit config {<enabled>,<num_units>:<latency>:<initiation>,<ID_OC_SPEC>:<OC_EX_SPEC>,<NAME>}
-gpgpu_perf_sim_memcpy                    1 # Fill the L2 cache on memcpy
-gpgpu_simple_dram_model                    0 # simple_dram_model with fixed latency and BW
-gpgpu_dram_scheduler                    1 # 0 = fifo, 1 = FR-FCFS (defaul)
-gpgpu_dram_partition_queues          64:64:64:64 # i2$:$2d:d2$:$2i
-l2_ideal                               0 # Use a ideal L2 cache that always hit
-gpgpu_cache:dl2     S:64:128:8,L:B:m:L:L,A:256:4,4:0,32 # unified banked L2 data cache config  {<nsets>:<bsize>:<assoc>,<rep>:<wr>:<alloc>:<wr_alloc>,<mshr>:<N>:<merge>,<mq>}
-gpgpu_cache:dl2_texture_only                    0 # L2 cache used for texture only
-gpgpu_n_mem                            6 # number of memory modules (e.g. memory controllers) in gpu
-gpgpu_n_sub_partition_per_mchannel                    2 # number of memory subpartition in each memory module
-gpgpu_n_mem_per_ctrlr                    2 # number of memory chips per memory controller
-gpgpu_memlatency_stat                   14 # track and display latency statistics 0x2 enables MC, 0x4 enables queue logs
-gpgpu_frfcfs_dram_sched_queue_size                   64 # 0 = unlimited (default); # entries per chip
-gpgpu_dram_return_queue_size                  116 # 0 = unlimited (default); # entries per chip
-gpgpu_dram_buswidth                    4 # default = 4 bytes (8 bytes per cycle at DDR)
-gpgpu_dram_burst_length                    8 # Burst length of each DRAM request (default = 4 data bus cycle)
-dram_data_command_freq_ratio                    4 # Frequency ratio between DRAM data bus and command bus (default = 2 times, i.e. DDR)
-gpgpu_dram_timing_opt nbk=16:CCD=2:RRD=6:RCD=12:RAS=28:RP=12:RC=40: CL=12:WL=4:CDLR=5:WR=12:nbkgrp=4:CCDL=3:RTPL=2 # DRAM timing parameters = {nbk:tCCD:tRRD:tRCD:tRAS:tRP:tRC:CL:WL:tCDLR:tWR:nbkgrp:tCCDL:tRTPL}
-gpgpu_l2_rop_latency                  120 # ROP queue latency (default 85)
-dram_latency                         100 # DRAM latency (default 30)
-dram_dual_bus_interface                    0 # dual_bus_interface (default = 0) 
-dram_bnk_indexing_policy                    0 # dram_bnk_indexing_policy (0 = normal indexing, 1 = Xoring with the higher bits) (Default = 0)
-dram_bnkgrp_indexing_policy                    1 # dram_bnkgrp_indexing_policy (0 = take higher bits, 1 = take lower bits) (Default = 0)
-dram_seperate_write_queue_enable                    0 # Seperate_Write_Queue_Enable
-dram_write_queue_size             32:28:16 # Write_Queue_Size
-dram_elimnate_rw_turnaround                    0 # elimnate_rw_turnaround i.e set tWTR and tRTW = 0
-icnt_flit_size                        40 # icnt_flit_size
-gpgpu_mem_addr_mapping dramid@8;00000000.00000000.00000000.00000000.0000RRRR.RRRRRRRR.BBBCCCCB.CCSSSSSS # mapping memory address to dram model {dramid@<start bit>;<memory address map>}
-gpgpu_mem_addr_test                    0 # run sweep test to check address mapping for aliased address
-gpgpu_mem_address_mask                    1 # 0 = old addressing mask, 1 = new addressing mask, 2 = new add. mask + flipped bank sel and chip sel bits
-gpgpu_memory_partition_indexing                    0 # 0 = no indexing, 1 = bitwise xoring, 2 = IPoly, 3 = custom indexing
-gpuwattch_xml_file  gpuwattch_gtx480.xml # GPUWattch XML file
-power_simulation_enabled                    1 # Turn on power simulator (1=On, 0=Off)
-power_per_cycle_dump                    0 # Dump detailed power output each cycle
-power_trace_enabled                    0 # produce a file for the power trace (1=On, 0=Off)
-power_trace_zlevel                     6 # Compression level of the power trace output log (0=no comp, 9=highest)
-steady_power_levels_enabled                    0 # produce a file for the steady power levels (1=On, 0=Off)
-steady_state_definition                  8:4 # allowed deviation:number of samples
-gpgpu_max_cycle                        0 # terminates gpu simulation early (0 = no limit)
-gpgpu_max_insn                         0 # terminates gpu simulation early (0 = no limit)
-gpgpu_max_cta                          0 # terminates gpu simulation early (0 = no limit)
-gpgpu_max_completed_cta                    0 # terminates gpu simulation early (0 = no limit)
-gpgpu_runtime_stat                   500 # display runtime statistics such as dram utilization {<freq>:<flag>}
-liveness_message_freq                    1 # Minimum number of seconds between simulation liveness messages (0 = always print)
-gpgpu_compute_capability_major                    2 # Major compute capability version number
-gpgpu_compute_capability_minor                    0 # Minor compute capability version number
-gpgpu_flush_l1_cache                    1 # Flush L1 cache at the end of each kernel call
-gpgpu_flush_l2_cache                    0 # Flush L2 cache at the end of each kernel call
-gpgpu_deadlock_detect                    1 # Stop the simulation at deadlock (1=on (default), 0=off)
-gpgpu_ptx_instruction_classification                    0 # if enabled will classify ptx instruction types per kernel (Max 255 kernels now)
-gpgpu_ptx_sim_mode                     0 # Select between Performance (default) or Functional simulation (1)
-gpgpu_clock_domains 700.0:700.0:700.0:924.0 # Clock Domain Frequencies in MhZ {<Core Clock>:<ICNT Clock>:<L2 Clock>:<DRAM Clock>}
-gpgpu_max_concurrent_kernel                    8 # maximum kernels that can run concurrently on GPU
-gpgpu_cflog_interval                    0 # Interval between each snapshot in control flow logger
-visualizer_enabled                     0 # Turn on visualizer output (1=On, 0=Off)
-visualizer_outputfile                 NULL # Specifies the output log file for visualizer
-visualizer_zlevel                      6 # Compression level of the visualizer output log (0=no comp, 9=highest)
-gpgpu_stack_size_limit                 1024 # GPU thread stack size
-gpgpu_heap_size_limit              8388608 # GPU malloc heap size 
-gpgpu_runtime_sync_depth_limit                    2 # GPU device runtime synchronize depth
-gpgpu_runtime_pending_launch_count_limit                 2048 # GPU device runtime pending launch count
-trace_enabled                          0 # Turn on traces
-trace_components                    none # comma seperated list of traces to enable. Complete list found in trace_streams.tup. Default none
-trace_sampling_core                    0 # The core which is printed using CORE_DPRINTF. Default 0
-trace_sampling_memory_partition                   -1 # The memory partition which is printed using MEMPART_DPRINTF. Default -1 (i.e. all)
-enable_ptx_file_line_stats                    1 # Turn on PTX source line statistic profiling. (1 = On)
-ptx_line_stats_filename gpgpu_inst_stats.txt # Output file for PTX source line statistics.
-gpgpu_kernel_launch_latency                    0 # Kernel launch latency in cycles. Default: 0
-gpgpu_cdp_enabled                      0 # Turn on CDP
-gpgpu_TB_launch_latency                    0 # thread block launch latency in cycles. Default: 0
DRAM Timing Options:
nbk                                    16 # number of banks
CCD                                     2 # column to column delay
RRD                                     6 # minimal delay between activation of rows in different banks
RCD                                    12 # row to column delay
RAS                                    28 # time needed to activate row
RP                                     12 # time needed to precharge (deactivate) row
RC                                     40 # row cycle time
CDLR                                    5 # switching from write to read (changes tWTR)
WR                                     12 # last data-in to row precharge
CL                                     12 # CAS latency
WL                                      4 # Write latency
nbkgrp                                  4 # number of bank groups
CCDL                                    3 # column to column delay between accesses to different bank groups
RTPL                                    2 # read to precharge delay between accesses to different bank groups
Total number of memory sub partition = 12
addr_dec_mask[CHIP]  = 0000000000000000 	high:64 low:0
addr_dec_mask[BK]    = 000000000000e100 	high:16 low:8
addr_dec_mask[ROW]   = 000000000fff0000 	high:28 low:16
addr_dec_mask[COL]   = 0000000000001eff 	high:13 low:0
addr_dec_mask[BURST] = 000000000000003f 	high:6 low:0
sub_partition_id_mask = 0000000000000100
GPGPU-Sim uArch: clock freqs: 700000000.000000:700000000.000000:700000000.000000:924000000.000000
GPGPU-Sim uArch: clock periods: 0.00000000142857142857:0.00000000142857142857:0.00000000142857142857:0.00000000108225108225
*** Initializing Memory Statistics ***
GPGPU-Sim uArch: interconnect node map (shaderID+MemID to icntID)
GPGPU-Sim uArch: Memory nodes ID start from index: 15
GPGPU-Sim uArch:    0   1   2   3   4
GPGPU-Sim uArch:    5   6   7   8   9
GPGPU-Sim uArch:   10  11  12  13  14
GPGPU-Sim uArch:   15  16  17  18  19
GPGPU-Sim uArch:   20  21  22  23  24
GPGPU-Sim uArch:   25  26
GPGPU-Sim uArch: interconnect node reverse map (icntID to shaderID+MemID)
GPGPU-Sim uArch: Memory nodes start from ID: 15
GPGPU-Sim uArch:    0   1   2   3   4
GPGPU-Sim uArch:    5   6   7   8   9
GPGPU-Sim uArch:   10  11  12  13  14
GPGPU-Sim uArch:   15  16  17  18  19
GPGPU-Sim uArch:   20  21  22  23  24
GPGPU-Sim uArch:   25  26
de14f224f14466139d6030a5626f7bbf  /home/zhaosiying/codebase/gpgpu-sim/upstream_gpgpusim/gpgpu-sim_distribution/configs/tested-cfgs/SM2_GTX480/a.out
Extracting PTX file and ptxas options    1: a.1.sm_30.ptx -arch=sm_30 -O0  
GPGPU-Sim uArch: performance model initialization complete.
self exe links to: /home/zhaosiying/codebase/gpgpu-sim/upstream_gpgpusim/gpgpu-sim_distribution/configs/tested-cfgs/SM2_GTX480/a.out
self exe links to: /home/zhaosiying/codebase/gpgpu-sim/upstream_gpgpusim/gpgpu-sim_distribution/configs/tested-cfgs/SM2_GTX480/a.out
9.1
GPGPU-Sim PTX: __cudaRegisterFatBinary, fat_cubin_handle = 1, filename=default
self exe links to: /home/zhaosiying/codebase/gpgpu-sim/upstream_gpgpusim/gpgpu-sim_distribution/configs/tested-cfgs/SM2_GTX480/a.out
Running md5sum using "md5sum /home/zhaosiying/codebase/gpgpu-sim/upstream_gpgpusim/gpgpu-sim_distribution/configs/tested-cfgs/SM2_GTX480/a.out "
self exe links to: /home/zhaosiying/codebase/gpgpu-sim/upstream_gpgpusim/gpgpu-sim_distribution/configs/tested-cfgs/SM2_GTX480/a.out
Extracting specific PTX file named a.1.sm_30.ptx 
GPGPU-Sim PTX: __cudaRegisterFunction _Z18test_mpipdom_st_rtPiS_i : hostFun 0x0x559f38b08680, fat_cubin_handle = 1
GPGPU-Sim PTX: Parsing a.1.sm_30.ptx
GPGPU-Sim PTX: instruction assembly for function '_Z18test_mpipdom_st_rtPiS_i'...   done.
GPGPU-Sim PTX: finished parsing EMBEDDED .ptx file a.1.sm_30.ptx
GPGPU-Sim PTX: loading globals with explicit initializers... 
GPGPU-Sim PTX: finished loading globals (0 bytes total).
GPGPU-Sim PTX: loading constants with explicit initializers...  done.
GPGPU-Sim PTX: Loading PTXInfo from a.1.sm_30.ptx
GPGPU-Sim PTX: Kernel '_Z18test_mpipdom_st_rtPiS_i' : regs=10, lmem=0, smem=0, cmem=340
Copy input data from the host memory to the CUDA device
CUDA kernel launch with 1 blocks of 32 threads
GPGPU-Sim PTX: Setting up arguments for 8 bytes starting at 0x7ffceab25178..
GPGPU-Sim PTX: Setting up arguments for 8 bytes starting at 0x7ffceab25170..
GPGPU-Sim PTX: Setting up arguments for 4 bytes starting at 0x7ffceab2516c..

GPGPU-Sim PTX: cudaLaunch for 0x0x559f38b08680 (mode=performance simulation) on stream 0
GPGPU-Sim PTX: finding reconvergence points for '_Z18test_mpipdom_st_rtPiS_i'...
GPGPU-Sim PTX: Finding dominators for '_Z18test_mpipdom_st_rtPiS_i'...
GPGPU-Sim PTX: Finding immediate dominators for '_Z18test_mpipdom_st_rtPiS_i'...
GPGPU-Sim PTX: Finding postdominators for '_Z18test_mpipdom_st_rtPiS_i'...
GPGPU-Sim PTX: Finding immediate postdominators for '_Z18test_mpipdom_st_rtPiS_i'...
GPGPU-Sim PTX: pre-decoding instructions for '_Z18test_mpipdom_st_rtPiS_i'...
GPGPU-Sim PTX: reconvergence points for _Z18test_mpipdom_st_rtPiS_i...
GPGPU-Sim PTX:  1 (potential) branch divergence @  PC=0x028 (a.1.sm_30.ptx:31) @%p2 bra BB0_2;
GPGPU-Sim PTX:    immediate post dominator      @  PC=0x4e8 (a.1.sm_30.ptx:195) cvt.s64.s32%rd99, %r1;
GPGPU-Sim PTX:  2 (potential) branch divergence @  PC=0x030 (a.1.sm_30.ptx:32) bra.uni BB0_1;
GPGPU-Sim PTX:    immediate post dominator      @  PC=0x038 (a.1.sm_30.ptx:35) cvt.s64.s32%rd81, %r1;
GPGPU-Sim PTX:  3 (potential) branch divergence @  PC=0x110 (a.1.sm_30.ptx:62) bra.uni BB0_6;
GPGPU-Sim PTX:    immediate post dominator      @  PC=0x4e8 (a.1.sm_30.ptx:195) cvt.s64.s32%rd99, %r1;
GPGPU-Sim PTX:  4 (potential) branch divergence @  PC=0x170 (a.1.sm_30.ptx:76) @%p4 bra BB0_4;
GPGPU-Sim PTX:    immediate post dominator      @  PC=0x458 (a.1.sm_30.ptx:175) cvt.s64.s32%rd69, %r1;
GPGPU-Sim PTX:  5 (potential) branch divergence @  PC=0x178 (a.1.sm_30.ptx:77) bra.uni BB0_3;
GPGPU-Sim PTX:    immediate post dominator      @  PC=0x180 (a.1.sm_30.ptx:80) cvt.s64.s32%rd33, %r1;
GPGPU-Sim PTX:  6 (potential) branch divergence @  PC=0x330 (a.1.sm_30.ptx:134) bra.uni BB0_5;
GPGPU-Sim PTX:    immediate post dominator      @  PC=0x458 (a.1.sm_30.ptx:175) cvt.s64.s32%rd69, %r1;
GPGPU-Sim PTX: ... end of reconvergence points for _Z18test_mpipdom_st_rtPiS_i
GPGPU-Sim PTX: ... done pre-decoding instructions for '_Z18test_mpipdom_st_rtPiS_i'.
GPGPU-Sim PTX: pushing kernel '_Z18test_mpipdom_st_rtPiS_i' to stream 0, gridDim= (1,1,1) blockDim = (32,1,1) 
GPGPU-Sim uArch: Shader 0 bind to kernel 1 '_Z18test_mpipdom_st_rtPiS_i'
GPGPU-Sim uArch: CTA/core = 8, limited by: cta_limit
[ZSY][FETCH] warp 0 (original_warp_id = 0) fetch instructions(pc = 0x0) at cycle 1 but miss
[ZSY][FETCH] warp 0 (original_warp_id = 0) get hit response(pc = 0x0) at cycle 266
[ZSY][FETCH] warp 0 (original_warp_id = 0) fetch instructions(pc = 0x10) at cycle 269 and hit
[ZSY][FETCH] warp 0 (original_warp_id = 0) fetch instructions(pc = 0x20) at cycle 277 and hit
[ZSY][SIMT_STACK] before warp 0 (original_warp_id = 0) split at cycle 291:
Splits Table(ST) of SM_id(00):
warp_id: 00, original_wid: 00, active_mask: 11111111111111111111111111111111, pc: 0x028, rpc: -----, tp: N, cd:  1 test_mpipdom_st_rt PC=0x028 (a.1.sm_30.ptx:31) @%p2 bra BB0_2;

Reconvergence Table(RT) of SM_id(00) Warp_id(00):
[N/A]

[ZSY][SIMT_STACK] after warp 0 (original_warp_id = 0) split at cycle 291:
Splits Table(ST) of SM_id(00):
warp_id: 00, original_wid: 00, active_mask: 00000000000000000000000011111111, pc: 0x030, rpc: 0x4e8, tp: N, cd:  0 test_mpipdom_st_rt PC=0x030 (a.1.sm_30.ptx:32) bra.uni BB0_1;
warp_id: 01, original_wid: 00, active_mask: 11111111111111111111111100000000, pc: 0x118, rpc: 0x4e8, tp: N, cd:  0 test_mpipdom_st_rt PC=0x118 (a.1.sm_30.ptx:65) cvt.s64.s32%rd3, %r1;

Reconvergence Table(RT) of SM_id(00) Warp_id(00):
split_wid: 00, record_mask: 11111111111111111111111111111111, pending_mask: 11111111111111111111111111111111, pc: 0x4e8, rpc: -----, tp: N, cd:  1 test_mpipdom_st_rt PC=0x4e8 (a.1.sm_30.ptx:195) cvt.s64.s32%rd99, %r1;

[ZSY][FETCH] warp 1 (original_warp_id = 0) fetch instructions(pc = 0x118) at cycle 291 but miss
[ZSY][FETCH] warp 0 (original_warp_id = 0) fetch instructions(pc = 0x30) at cycle 292 and hit
[ZSY][FETCH] warp 0 (original_warp_id = 0) fetch instructions(pc = 0x40) at cycle 295 and hit
[ZSY][FETCH] warp 0 (original_warp_id = 0) fetch instructions(pc = 0x50) at cycle 544 and hit
[ZSY][FETCH] warp 1 (original_warp_id = 0) get hit response(pc = 0x118) at cycle 556
[ZSY][FETCH] warp 1 (original_warp_id = 0) fetch instructions(pc = 0x128) at cycle 565 and hit
[ZSY][FETCH] warp 1 (original_warp_id = 0) fetch instructions(pc = 0x138) at cycle 582 and hit
[ZSY][FETCH] warp 0 (original_warp_id = 0) fetch instructions(pc = 0x60) at cycle 735 and hit
[ZSY][FETCH] warp 1 (original_warp_id = 0) fetch instructions(pc = 0x148) at cycle 737 and hit
[ZSY][FETCH] warp 0 (original_warp_id = 0) fetch instructions(pc = 0x70) at cycle 744 and hit
[ZSY][FETCH] warp 1 (original_warp_id = 0) fetch instructions(pc = 0x158) at cycle 751 and hit
[ZSY][FETCH] warp 0 (original_warp_id = 0) fetch instructions(pc = 0x80) at cycle 762 but miss
[ZSY][FETCH] warp 1 (original_warp_id = 0) fetch instructions(pc = 0x168) at cycle 763 and hit
[ZSY][SIMT_STACK] before warp 1 (original_warp_id = 0) split at cycle 776:
Splits Table(ST) of SM_id(00):
warp_id: 00, original_wid: 00, active_mask: 00000000000000000000000011111111, pc: 0x080, rpc: 0x4e8, tp: N, cd:  0 test_mpipdom_st_rt PC=0x080 (a.1.sm_30.ptx:44) cvt.s64.s32%rd87, %r1;
warp_id: 01, original_wid: 00, active_mask: 11111111111111111111111100000000, pc: 0x170, rpc: 0x4e8, tp: N, cd:  0 test_mpipdom_st_rt PC=0x170 (a.1.sm_30.ptx:76) @%p4 bra BB0_4;

Reconvergence Table(RT) of SM_id(00) Warp_id(00):
split_wid: 00, record_mask: 11111111111111111111111111111111, pending_mask: 11111111111111111111111111111111, pc: 0x4e8, rpc: -----, tp: N, cd:  1 test_mpipdom_st_rt PC=0x4e8 (a.1.sm_30.ptx:195) cvt.s64.s32%rd99, %r1;

[ZSY][SIMT_STACK] after warp 1 (original_warp_id = 0) split at cycle 776:
Splits Table(ST) of SM_id(00):
warp_id: 00, original_wid: 00, active_mask: 00000000000000000000000011111111, pc: 0x080, rpc: 0x4e8, tp: N, cd:  0 test_mpipdom_st_rt PC=0x080 (a.1.sm_30.ptx:44) cvt.s64.s32%rd87, %r1;
warp_id: 01, original_wid: 00, active_mask: 11111111111111110000000000000000, pc: 0x178, rpc: 0x458, tp: N, cd:  0 test_mpipdom_st_rt PC=0x178 (a.1.sm_30.ptx:77) bra.uni BB0_3;
warp_id: 02, original_wid: 00, active_mask: 00000000000000001111111100000000, pc: 0x338, rpc: 0x458, tp: N, cd:  0 test_mpipdom_st_rt PC=0x338 (a.1.sm_30.ptx:137) cvt.s64.s32%rd9, %r1;

Reconvergence Table(RT) of SM_id(00) Warp_id(00):
split_wid: 00, record_mask: 11111111111111111111111111111111, pending_mask: 11111111111111111111111111111111, pc: 0x4e8, rpc: -----, tp: N, cd:  1 test_mpipdom_st_rt PC=0x4e8 (a.1.sm_30.ptx:195) cvt.s64.s32%rd99, %r1;
split_wid: 01, record_mask: 11111111111111111111111100000000, pending_mask: 11111111111111111111111100000000, pc: 0x458, rpc: 0x4e8, tp: N, cd:  0 test_mpipdom_st_rt PC=0x458 (a.1.sm_30.ptx:175) cvt.s64.s32%rd69, %r1;

[ZSY][FETCH] warp 2 (original_warp_id = 0) fetch instructions(pc = 0x338) at cycle 776 but miss
[ZSY][FETCH] warp 1 (original_warp_id = 0) fetch instructions(pc = 0x178) at cycle 777 and hit
[ZSY][FETCH] warp 0 (original_warp_id = 0) get hit response(pc = 0x80) at cycle 1038
[ZSY][FETCH] warp 1 (original_warp_id = 0) fetch instructions(pc = 0x188) at cycle 1039 but miss
[ZSY][FETCH] warp 2 (original_warp_id = 0) get hit response(pc = 0x338) at cycle 1041
[ZSY][FETCH] warp 0 (original_warp_id = 0) fetch instructions(pc = 0x90) at cycle 1047 and hit
[ZSY][FETCH] warp 2 (original_warp_id = 0) fetch instructions(pc = 0x348) at cycle 1050 and hit
[ZSY][FETCH] warp 0 (original_warp_id = 0) fetch instructions(pc = 0xa0) at cycle 1064 and hit
[ZSY][FETCH] warp 2 (original_warp_id = 0) fetch instructions(pc = 0x358) at cycle 1067 and hit
[ZSY][FETCH] warp 0 (original_warp_id = 0) fetch instructions(pc = 0xb0) at cycle 1246 and hit
[ZSY][FETCH] warp 2 (original_warp_id = 0) fetch instructions(pc = 0x368) at cycle 1248 and hit
[ZSY][FETCH] warp 0 (original_warp_id = 0) fetch instructions(pc = 0xc0) at cycle 1260 and hit
[ZSY][FETCH] warp 2 (original_warp_id = 0) fetch instructions(pc = 0x378) at cycle 1262 and hit
[ZSY][FETCH] warp 0 (original_warp_id = 0) fetch instructions(pc = 0xd0) at cycle 1271 and hit
[ZSY][FETCH] warp 2 (original_warp_id = 0) fetch instructions(pc = 0x388) at cycle 1273 but miss
[ZSY][FETCH] warp 0 (original_warp_id = 0) fetch instructions(pc = 0xe0) at cycle 1285 and hit
[ZSY][FETCH] warp 1 (original_warp_id = 0) get hit response(pc = 0x188) at cycle 1295
[ZSY][FETCH] warp 1 (original_warp_id = 0) fetch instructions(pc = 0x198) at cycle 1304 and hit
[ZSY][FETCH] warp 0 (original_warp_id = 0) fetch instructions(pc = 0xf0) at cycle 1476 and hit
[ZSY][FETCH] warp 1 (original_warp_id = 0) fetch instructions(pc = 0x1a8) at cycle 1477 and hit
[ZSY][FETCH] warp 0 (original_warp_id = 0) fetch instructions(pc = 0x100) at cycle 1485 and hit
[ZSY][FETCH] warp 1 (original_warp_id = 0) fetch instructions(pc = 0x1b8) at cycle 1486 and hit
[ZSY][FETCH] warp 0 (original_warp_id = 0) fetch instructions(pc = 0x110) at cycle 1502 and hit
[ZSY][FETCH] warp 1 (original_warp_id = 0) fetch instructions(pc = 0x1c8) at cycle 1503 and hit
[ZSY][SIMT_STACK] before warp 0 (original_warp_id = 0) exit from simt stack at cycle 1504
Splits Table(ST) of SM_id(00):
warp_id: 00, original_wid: 00, active_mask: 00000000000000000000000011111111, pc: 0x110, rpc: 0x4e8, tp: N, cd:  0 test_mpipdom_st_rt PC=0x110 (a.1.sm_30.ptx:62) bra.uni BB0_6;
warp_id: 01, original_wid: 00, active_mask: 11111111111111110000000000000000, pc: 0x1c8, rpc: 0x458, tp: N, cd:  0 test_mpipdom_st_rt PC=0x1c8 (a.1.sm_30.ptx:89) cvt.s64.s32%rd39, %r1;
warp_id: 02, original_wid: 00, active_mask: 00000000000000001111111100000000, pc: 0x388, rpc: 0x458, tp: N, cd:  0 test_mpipdom_st_rt PC=0x388 (a.1.sm_30.ptx:147) shl.b64 %rd16, %rd15, 2;

Reconvergence Table(RT) of SM_id(00) Warp_id(00):
split_wid: 00, record_mask: 11111111111111111111111111111111, pending_mask: 11111111111111111111111111111111, pc: 0x4e8, rpc: -----, tp: N, cd:  1 test_mpipdom_st_rt PC=0x4e8 (a.1.sm_30.ptx:195) cvt.s64.s32%rd99, %r1;
split_wid: 01, record_mask: 11111111111111111111111100000000, pending_mask: 11111111111111111111111100000000, pc: 0x458, rpc: 0x4e8, tp: N, cd:  0 test_mpipdom_st_rt PC=0x458 (a.1.sm_30.ptx:175) cvt.s64.s32%rd69, %r1;

[ZSY][SIMT_STACK] after warp 0 (original_warp_id = 0) exit from simt stack at cycle 1504
Splits Table(ST) of SM_id(00):
warp_id: 00, original_wid: 00, [N/A]: pending exit
warp_id: 01, original_wid: 00, active_mask: 11111111111111110000000000000000, pc: 0x1c8, rpc: 0x458, tp: N, cd:  0 test_mpipdom_st_rt PC=0x1c8 (a.1.sm_30.ptx:89) cvt.s64.s32%rd39, %r1;
warp_id: 02, original_wid: 00, active_mask: 00000000000000001111111100000000, pc: 0x388, rpc: 0x458, tp: N, cd:  0 test_mpipdom_st_rt PC=0x388 (a.1.sm_30.ptx:147) shl.b64 %rd16, %rd15, 2;

Reconvergence Table(RT) of SM_id(00) Warp_id(00):
split_wid: 00, record_mask: 11111111111111111111111111111111, pending_mask: 11111111111111111111111100000000, pc: 0x4e8, rpc: -----, tp: N, cd:  1 test_mpipdom_st_rt PC=0x4e8 (a.1.sm_30.ptx:195) cvt.s64.s32%rd99, %r1;
split_wid: 01, record_mask: 11111111111111111111111100000000, pending_mask: 11111111111111111111111100000000, pc: 0x458, rpc: 0x4e8, tp: N, cd:  0 test_mpipdom_st_rt PC=0x458 (a.1.sm_30.ptx:175) cvt.s64.s32%rd69, %r1;

[ZSY][SCHED] warp 0 stalled at reconvergence pc at cycles 1505
[ZSY][SCHED] warp 0 stalled at reconvergence pc at cycles 1506
[ZSY][SCHED] warp 0 stalled at reconvergence pc at cycles 1507
[ZSY][SCHED] warp 0 stalled at reconvergence pc at cycles 1508
[ZSY][SCHED] warp 0 stalled at reconvergence pc at cycles 1509
[ZSY][SCHED] warp 0 stalled at reconvergence pc at cycles 1510
[ZSY][SCHED] warp 0 stalled at reconvergence pc at cycles 1511
[ZSY][SCHED] warp 0 stalled at reconvergence pc at cycles 1512
[ZSY][FETCH] warp 1 (original_warp_id = 0) fetch instructions(pc = 0x1d8) at cycle 1512 and hit
[ZSY][SCHED] warp 0 stalled at reconvergence pc at cycles 1513
[ZSY][SCHED] warp 0 stalled at reconvergence pc at cycles 1514
[ZSY][SCHED] warp 0 stalled at reconvergence pc at cycles 1515
[ZSY][SCHED] warp 0 stalled at reconvergence pc at cycles 1516
[ZSY][SCHED] warp 0 stalled at reconvergence pc at cycles 1517
[ZSY][SCHED] warp 0 stalled at reconvergence pc at cycles 1518
[ZSY][SCHED] warp 0 stalled at reconvergence pc at cycles 1519
[ZSY][SCHED] warp 0 stalled at reconvergence pc at cycles 1520
[ZSY][SCHED] warp 0 stalled at reconvergence pc at cycles 1521
[ZSY][SCHED] warp 0 stalled at reconvergence pc at cycles 1522
[ZSY][SCHED] warp 0 stalled at reconvergence pc at cycles 1523
[ZSY][SCHED] warp 0 stalled at reconvergence pc at cycles 1524
[ZSY][SCHED] warp 0 stalled at reconvergence pc at cycles 1525
[ZSY][SCHED] warp 0 stalled at reconvergence pc at cycles 1526
[ZSY][SCHED] warp 0 stalled at reconvergence pc at cycles 1527
[ZSY][SCHED] warp 0 stalled at reconvergence pc at cycles 1528
[ZSY][SCHED] warp 0 stalled at reconvergence pc at cycles 1529
[ZSY][FETCH] warp 2 (original_warp_id = 0) get hit response(pc = 0x388) at cycle 1529
[ZSY][SCHED] warp 0 stalled at reconvergence pc at cycles 1530
[ZSY][FETCH] warp 1 (original_warp_id = 0) fetch instructions(pc = 0x1e8) at cycle 1530 and hit
[ZSY][SCHED] warp 0 stalled at reconvergence pc at cycles 1531
[ZSY][SCHED] warp 0 stalled at reconvergence pc at cycles 1532
[ZSY][SCHED] warp 0 stalled at reconvergence pc at cycles 1533
[ZSY][SCHED] warp 0 stalled at reconvergence pc at cycles 1534
[ZSY][SCHED] warp 0 stalled at reconvergence pc at cycles 1535
[ZSY][SCHED] warp 0 stalled at reconvergence pc at cycles 1536
[ZSY][SCHED] warp 0 stalled at reconvergence pc at cycles 1537
[ZSY][FETCH] warp 2 (original_warp_id = 0) fetch instructions(pc = 0x398) at cycle 1538 and hit
[ZSY][SCHED] warp 0 stalled at reconvergence pc at cycles 1539
[ZSY][SCHED] warp 0 stalled at reconvergence pc at cycles 1540
[ZSY][SCHED] warp 0 stalled at reconvergence pc at cycles 1541
[ZSY][SCHED] warp 0 stalled at reconvergence pc at cycles 1542
[ZSY][SCHED] warp 0 stalled at reconvergence pc at cycles 1543
[ZSY][SCHED] warp 0 stalled at reconvergence pc at cycles 1544
[ZSY][SCHED] warp 0 stalled at reconvergence pc at cycles 1545
[ZSY][SCHED] warp 0 stalled at reconvergence pc at cycles 1546
[ZSY][SCHED] warp 0 stalled at reconvergence pc at cycles 1547
[ZSY][SCHED] warp 0 stalled at reconvergence pc at cycles 1549
[ZSY][SCHED] warp 0 stalled at reconvergence pc at cycles 1550
[ZSY][SCHED] warp 0 stalled at reconvergence pc at cycles 1551
[ZSY][SCHED] warp 0 stalled at reconvergence pc at cycles 1552
[ZSY][SCHED] warp 0 stalled at reconvergence pc at cycles 1553
[ZSY][SCHED] warp 0 stalled at reconvergence pc at cycles 1554
[ZSY][SCHED] warp 0 stalled at reconvergence pc at cycles 1555
[ZSY][SCHED] warp 0 stalled at reconvergence pc at cycles 1556
[ZSY][SCHED] warp 0 stalled at reconvergence pc at cycles 1557
[ZSY][SCHED] warp 0 stalled at reconvergence pc at cycles 1558
[ZSY][SCHED] warp 0 stalled at reconvergence pc at cycles 1559
[ZSY][SCHED] warp 0 stalled at reconvergence pc at cycles 1560
[ZSY][SCHED] warp 0 stalled at reconvergence pc at cycles 1561
[ZSY][SCHED] warp 0 stalled at reconvergence pc at cycles 1562
[ZSY][SCHED] warp 0 stalled at reconvergence pc at cycles 1563
[ZSY][SCHED] warp 0 stalled at reconvergence pc at cycles 1564
[ZSY][SCHED] warp 0 stalled at reconvergence pc at cycles 1565
[ZSY][SCHED] warp 0 stalled at reconvergence pc at cycles 1566
[ZSY][SCHED] warp 0 stalled at reconvergence pc at cycles 1567
[ZSY][SCHED] warp 0 stalled at reconvergence pc at cycles 1568
[ZSY][SCHED] warp 0 stalled at reconvergence pc at cycles 1569
[ZSY][SCHED] warp 0 stalled at reconvergence pc at cycles 1570
[ZSY][SCHED] warp 0 stalled at reconvergence pc at cycles 1571
[ZSY][SCHED] warp 0 stalled at reconvergence pc at cycles 1572
[ZSY][SCHED] warp 0 stalled at reconvergence pc at cycles 1573
[ZSY][SCHED] warp 0 stalled at reconvergence pc at cycles 1574
[ZSY][SCHED] warp 0 stalled at reconvergence pc at cycles 1575
[ZSY][SCHED] warp 0 stalled at reconvergence pc at cycles 1576
[ZSY][SCHED] warp 0 stalled at reconvergence pc at cycles 1577
[ZSY][SCHED] warp 0 stalled at reconvergence pc at cycles 1578
[ZSY][SCHED] warp 0 stalled at reconvergence pc at cycles 1579
[ZSY][SCHED] warp 0 stalled at reconvergence pc at cycles 1580
[ZSY][SCHED] warp 0 stalled at reconvergence pc at cycles 1581
[ZSY][SCHED] warp 0 stalled at reconvergence pc at cycles 1582
[ZSY][SCHED] warp 0 stalled at reconvergence pc at cycles 1583
[ZSY][SCHED] warp 0 stalled at reconvergence pc at cycles 1584
[ZSY][SCHED] warp 0 stalled at reconvergence pc at cycles 1585
[ZSY][SCHED] warp 0 stalled at reconvergence pc at cycles 1586
[ZSY][SCHED] warp 0 stalled at reconvergence pc at cycles 1587
[ZSY][SCHED] warp 0 stalled at reconvergence pc at cycles 1588
[ZSY][SCHED] warp 0 stalled at reconvergence pc at cycles 1589
[ZSY][SCHED] warp 0 stalled at reconvergence pc at cycles 1590
[ZSY][SCHED] warp 0 stalled at reconvergence pc at cycles 1591
[ZSY][SCHED] warp 0 stalled at reconvergence pc at cycles 1592
[ZSY][SCHED] warp 0 stalled at reconvergence pc at cycles 1593
[ZSY][SCHED] warp 0 stalled at reconvergence pc at cycles 1594
[ZSY][SCHED] warp 0 stalled at reconvergence pc at cycles 1595
[ZSY][SCHED] warp 0 stalled at reconvergence pc at cycles 1596
[ZSY][SCHED] warp 0 stalled at reconvergence pc at cycles 1597
[ZSY][SCHED] warp 0 stalled at reconvergence pc at cycles 1598
[ZSY][SCHED] warp 0 stalled at reconvergence pc at cycles 1599
[ZSY][SCHED] warp 0 stalled at reconvergence pc at cycles 1600
[ZSY][SCHED] warp 0 stalled at reconvergence pc at cycles 1601
[ZSY][SCHED] warp 0 stalled at reconvergence pc at cycles 1602
[ZSY][SCHED] warp 0 stalled at reconvergence pc at cycles 1603
[ZSY][SCHED] warp 0 stalled at reconvergence pc at cycles 1604
[ZSY][SCHED] warp 0 stalled at reconvergence pc at cycles 1605
[ZSY][SCHED] warp 0 stalled at reconvergence pc at cycles 1606
[ZSY][SCHED] warp 0 stalled at reconvergence pc at cycles 1607
[ZSY][SCHED] warp 0 stalled at reconvergence pc at cycles 1608
[ZSY][SCHED] warp 0 stalled at reconvergence pc at cycles 1609
[ZSY][SCHED] warp 0 stalled at reconvergence pc at cycles 1610
[ZSY][SCHED] warp 0 stalled at reconvergence pc at cycles 1611
[ZSY][SCHED] warp 0 stalled at reconvergence pc at cycles 1612
[ZSY][SCHED] warp 0 stalled at reconvergence pc at cycles 1613
[ZSY][SCHED] warp 0 stalled at reconvergence pc at cycles 1614
[ZSY][SCHED] warp 0 stalled at reconvergence pc at cycles 1615
[ZSY][SCHED] warp 0 stalled at reconvergence pc at cycles 1616
[ZSY][SCHED] warp 0 stalled at reconvergence pc at cycles 1617
[ZSY][SCHED] warp 0 stalled at reconvergence pc at cycles 1618
[ZSY][SCHED] warp 0 stalled at reconvergence pc at cycles 1619
[ZSY][SCHED] warp 0 stalled at reconvergence pc at cycles 1620
[ZSY][SCHED] warp 0 stalled at reconvergence pc at cycles 1621
[ZSY][SCHED] warp 0 stalled at reconvergence pc at cycles 1622
[ZSY][SCHED] warp 0 stalled at reconvergence pc at cycles 1623
[ZSY][SCHED] warp 0 stalled at reconvergence pc at cycles 1624
[ZSY][SCHED] warp 0 stalled at reconvergence pc at cycles 1625
[ZSY][SCHED] warp 0 stalled at reconvergence pc at cycles 1626
[ZSY][SCHED] warp 0 stalled at reconvergence pc at cycles 1627
[ZSY][SCHED] warp 0 stalled at reconvergence pc at cycles 1628
[ZSY][SCHED] warp 0 stalled at reconvergence pc at cycles 1629
[ZSY][SCHED] warp 0 stalled at reconvergence pc at cycles 1630
[ZSY][SCHED] warp 0 stalled at reconvergence pc at cycles 1631
[ZSY][SCHED] warp 0 stalled at reconvergence pc at cycles 1632
[ZSY][SCHED] warp 0 stalled at reconvergence pc at cycles 1633
[ZSY][SCHED] warp 0 stalled at reconvergence pc at cycles 1634
[ZSY][SCHED] warp 0 stalled at reconvergence pc at cycles 1635
[ZSY][SCHED] warp 0 stalled at reconvergence pc at cycles 1636
[ZSY][SCHED] warp 0 stalled at reconvergence pc at cycles 1637
[ZSY][SCHED] warp 0 stalled at reconvergence pc at cycles 1638
[ZSY][SCHED] warp 0 stalled at reconvergence pc at cycles 1639
[ZSY][SCHED] warp 0 stalled at reconvergence pc at cycles 1640
[ZSY][SCHED] warp 0 stalled at reconvergence pc at cycles 1641
[ZSY][SCHED] warp 0 stalled at reconvergence pc at cycles 1642
[ZSY][SCHED] warp 0 stalled at reconvergence pc at cycles 1643
[ZSY][SCHED] warp 0 stalled at reconvergence pc at cycles 1644
[ZSY][SCHED] warp 0 stalled at reconvergence pc at cycles 1645
[ZSY][SCHED] warp 0 stalled at reconvergence pc at cycles 1646
[ZSY][SCHED] warp 0 stalled at reconvergence pc at cycles 1647
[ZSY][SCHED] warp 0 stalled at reconvergence pc at cycles 1648
[ZSY][SCHED] warp 0 stalled at reconvergence pc at cycles 1649
[ZSY][SCHED] warp 0 stalled at reconvergence pc at cycles 1650
[ZSY][SCHED] warp 0 stalled at reconvergence pc at cycles 1651
[ZSY][SCHED] warp 0 stalled at reconvergence pc at cycles 1652
[ZSY][SCHED] warp 0 stalled at reconvergence pc at cycles 1653
[ZSY][SCHED] warp 0 stalled at reconvergence pc at cycles 1654
[ZSY][SCHED] warp 0 stalled at reconvergence pc at cycles 1655
[ZSY][SCHED] warp 0 stalled at reconvergence pc at cycles 1656
[ZSY][SCHED] warp 0 stalled at reconvergence pc at cycles 1657
[ZSY][SCHED] warp 0 stalled at reconvergence pc at cycles 1658
[ZSY][SCHED] warp 0 stalled at reconvergence pc at cycles 1659
[ZSY][SCHED] warp 0 stalled at reconvergence pc at cycles 1660
[ZSY][SCHED] warp 0 stalled at reconvergence pc at cycles 1661
[ZSY][SCHED] warp 0 stalled at reconvergence pc at cycles 1662
[ZSY][SCHED] warp 0 stalled at reconvergence pc at cycles 1663
[ZSY][SCHED] warp 0 stalled at reconvergence pc at cycles 1664
[ZSY][SCHED] warp 0 stalled at reconvergence pc at cycles 1665
[ZSY][SCHED] warp 0 stalled at reconvergence pc at cycles 1666
[ZSY][SCHED] warp 0 stalled at reconvergence pc at cycles 1667
[ZSY][SCHED] warp 0 stalled at reconvergence pc at cycles 1668
[ZSY][SCHED] warp 0 stalled at reconvergence pc at cycles 1669
[ZSY][SCHED] warp 0 stalled at reconvergence pc at cycles 1670
[ZSY][SCHED] warp 0 stalled at reconvergence pc at cycles 1671
[ZSY][SCHED] warp 0 stalled at reconvergence pc at cycles 1672
[ZSY][SCHED] warp 0 stalled at reconvergence pc at cycles 1673
[ZSY][SCHED] warp 0 stalled at reconvergence pc at cycles 1674
[ZSY][SCHED] warp 0 stalled at reconvergence pc at cycles 1675
[ZSY][SCHED] warp 0 stalled at reconvergence pc at cycles 1676
[ZSY][SCHED] warp 0 stalled at reconvergence pc at cycles 1677
[ZSY][SCHED] warp 0 stalled at reconvergence pc at cycles 1678
[ZSY][SCHED] warp 0 stalled at reconvergence pc at cycles 1679
[ZSY][SCHED] warp 0 stalled at reconvergence pc at cycles 1680
[ZSY][SCHED] warp 0 stalled at reconvergence pc at cycles 1681
[ZSY][SCHED] warp 0 stalled at reconvergence pc at cycles 1682
[ZSY][SCHED] warp 0 stalled at reconvergence pc at cycles 1683
[ZSY][SCHED] warp 0 stalled at reconvergence pc at cycles 1684
[ZSY][SCHED] warp 0 stalled at reconvergence pc at cycles 1685
[ZSY][SCHED] warp 0 stalled at reconvergence pc at cycles 1686
[ZSY][SCHED] warp 0 stalled at reconvergence pc at cycles 1687
[ZSY][SCHED] warp 0 stalled at reconvergence pc at cycles 1688
[ZSY][SCHED] warp 0 stalled at reconvergence pc at cycles 1689
[ZSY][SCHED] warp 0 stalled at reconvergence pc at cycles 1690
[ZSY][SCHED] warp 0 stalled at reconvergence pc at cycles 1691
[ZSY][SCHED] warp 0 stalled at reconvergence pc at cycles 1692
[ZSY][SCHED] warp 0 stalled at reconvergence pc at cycles 1693
[ZSY][SCHED] warp 0 stalled at reconvergence pc at cycles 1694
[ZSY][SCHED] warp 0 stalled at reconvergence pc at cycles 1695
[ZSY][SCHED] warp 0 stalled at reconvergence pc at cycles 1696
[ZSY][SCHED] warp 0 stalled at reconvergence pc at cycles 1697
[ZSY][SCHED] warp 0 stalled at reconvergence pc at cycles 1698
[ZSY][SCHED] warp 0 stalled at reconvergence pc at cycles 1699
[ZSY][SCHED] warp 0 stalled at reconvergence pc at cycles 1700
[ZSY][SCHED] warp 0 stalled at reconvergence pc at cycles 1701
[ZSY][SCHED] warp 0 stalled at reconvergence pc at cycles 1702
[ZSY][SCHED] warp 0 stalled at reconvergence pc at cycles 1703
[ZSY][SCHED] warp 0 stalled at reconvergence pc at cycles 1704
[ZSY][SCHED] warp 0 stalled at reconvergence pc at cycles 1705
[ZSY][SCHED] warp 0 stalled at reconvergence pc at cycles 1706
[ZSY][SCHED] warp 0 stalled at reconvergence pc at cycles 1707
[ZSY][SCHED] warp 0 stalled at reconvergence pc at cycles 1708
[ZSY][SCHED] warp 0 stalled at reconvergence pc at cycles 1709
[ZSY][SCHED] warp 0 stalled at reconvergence pc at cycles 1710
[ZSY][FETCH] warp 1 (original_warp_id = 0) fetch instructions(pc = 0x1f8) at cycle 1711 and hit
[ZSY][SCHED] warp 0 stalled at reconvergence pc at cycles 1712
[ZSY][FETCH] warp 2 (original_warp_id = 0) fetch instructions(pc = 0x3a8) at cycle 1712 and hit
[ZSY][SCHED] warp 0 stalled at reconvergence pc at cycles 1713
[ZSY][SCHED] warp 0 stalled at reconvergence pc at cycles 1715
[ZSY][SCHED] warp 0 stalled at reconvergence pc at cycles 1716
[ZSY][SCHED] warp 0 stalled at reconvergence pc at cycles 1717
[ZSY][SCHED] warp 0 stalled at reconvergence pc at cycles 1718
[ZSY][SCHED] warp 0 stalled at reconvergence pc at cycles 1719
[ZSY][SCHED] warp 0 stalled at reconvergence pc at cycles 1720
[ZSY][FETCH] warp 2 (original_warp_id = 0) fetch instructions(pc = 0x3b8) at cycle 1721 and hit
[ZSY][SCHED] warp 0 stalled at reconvergence pc at cycles 1722
[ZSY][SCHED] warp 0 stalled at reconvergence pc at cycles 1723
[ZSY][SCHED] warp 0 stalled at reconvergence pc at cycles 1724
[ZSY][SCHED] warp 0 stalled at reconvergence pc at cycles 1725
[ZSY][FETCH] warp 1 (original_warp_id = 0) fetch instructions(pc = 0x208) at cycle 1725 but miss
[ZSY][SCHED] warp 0 stalled at reconvergence pc at cycles 1726
[ZSY][SCHED] warp 0 stalled at reconvergence pc at cycles 1727
[ZSY][SCHED] warp 0 stalled at reconvergence pc at cycles 1729
[ZSY][SCHED] warp 0 stalled at reconvergence pc at cycles 1730
[ZSY][SCHED] warp 0 stalled at reconvergence pc at cycles 1731
[ZSY][SCHED] warp 0 stalled at reconvergence pc at cycles 1732
[ZSY][SCHED] warp 0 stalled at reconvergence pc at cycles 1733
[ZSY][SCHED] warp 0 stalled at reconvergence pc at cycles 1734
[ZSY][SCHED] warp 0 stalled at reconvergence pc at cycles 1735
[ZSY][SCHED] warp 0 stalled at reconvergence pc at cycles 1736
[ZSY][SCHED] warp 0 stalled at reconvergence pc at cycles 1737
[ZSY][FETCH] warp 2 (original_warp_id = 0) fetch instructions(pc = 0x3c8) at cycle 1738 and hit
[ZSY][SCHED] warp 0 stalled at reconvergence pc at cycles 1739
[ZSY][SCHED] warp 0 stalled at reconvergence pc at cycles 1741
[ZSY][SCHED] warp 0 stalled at reconvergence pc at cycles 1742
[ZSY][SCHED] warp 0 stalled at reconvergence pc at cycles 1743
[ZSY][SCHED] warp 0 stalled at reconvergence pc at cycles 1744
[ZSY][SCHED] warp 0 stalled at reconvergence pc at cycles 1745
[ZSY][SCHED] warp 0 stalled at reconvergence pc at cycles 1746
[ZSY][FETCH] warp 2 (original_warp_id = 0) fetch instructions(pc = 0x3d8) at cycle 1747 and hit
[ZSY][SCHED] warp 0 stalled at reconvergence pc at cycles 1748
[ZSY][SCHED] warp 0 stalled at reconvergence pc at cycles 1749
[ZSY][SCHED] warp 0 stalled at reconvergence pc at cycles 1750
[ZSY][SCHED] warp 0 stalled at reconvergence pc at cycles 1751
[ZSY][SCHED] warp 0 stalled at reconvergence pc at cycles 1752
[ZSY][SCHED] warp 0 stalled at reconvergence pc at cycles 1753
[ZSY][SCHED] warp 0 stalled at reconvergence pc at cycles 1755
[ZSY][SCHED] warp 0 stalled at reconvergence pc at cycles 1756
[ZSY][SCHED] warp 0 stalled at reconvergence pc at cycles 1757
[ZSY][SCHED] warp 0 stalled at reconvergence pc at cycles 1758
[ZSY][SCHED] warp 0 stalled at reconvergence pc at cycles 1759
[ZSY][SCHED] warp 0 stalled at reconvergence pc at cycles 1760
[ZSY][SCHED] warp 0 stalled at reconvergence pc at cycles 1761
[ZSY][SCHED] warp 0 stalled at reconvergence pc at cycles 1762
[ZSY][SCHED] warp 0 stalled at reconvergence pc at cycles 1763
[ZSY][FETCH] warp 2 (original_warp_id = 0) fetch instructions(pc = 0x3e8) at cycle 1764 and hit
[ZSY][SCHED] warp 0 stalled at reconvergence pc at cycles 1765
[ZSY][SCHED] warp 0 stalled at reconvergence pc at cycles 1766
[ZSY][SCHED] warp 0 stalled at reconvergence pc at cycles 1767
[ZSY][SCHED] warp 0 stalled at reconvergence pc at cycles 1768
[ZSY][SCHED] warp 0 stalled at reconvergence pc at cycles 1769
[ZSY][SCHED] warp 0 stalled at reconvergence pc at cycles 1770
[ZSY][SCHED] warp 0 stalled at reconvergence pc at cycles 1771
[ZSY][SCHED] warp 0 stalled at reconvergence pc at cycles 1772
[ZSY][SCHED] warp 0 stalled at reconvergence pc at cycles 1773
[ZSY][SCHED] warp 0 stalled at reconvergence pc at cycles 1774
[ZSY][SCHED] warp 0 stalled at reconvergence pc at cycles 1775
[ZSY][SCHED] warp 0 stalled at reconvergence pc at cycles 1776
[ZSY][SCHED] warp 0 stalled at reconvergence pc at cycles 1777
[ZSY][SCHED] warp 0 stalled at reconvergence pc at cycles 1778
[ZSY][SCHED] warp 0 stalled at reconvergence pc at cycles 1779
[ZSY][SCHED] warp 0 stalled at reconvergence pc at cycles 1780
[ZSY][SCHED] warp 0 stalled at reconvergence pc at cycles 1781
[ZSY][SCHED] warp 0 stalled at reconvergence pc at cycles 1782
[ZSY][SCHED] warp 0 stalled at reconvergence pc at cycles 1783
[ZSY][SCHED] warp 0 stalled at reconvergence pc at cycles 1784
[ZSY][SCHED] warp 0 stalled at reconvergence pc at cycles 1785
[ZSY][SCHED] warp 0 stalled at reconvergence pc at cycles 1786
[ZSY][SCHED] warp 0 stalled at reconvergence pc at cycles 1787
[ZSY][SCHED] warp 0 stalled at reconvergence pc at cycles 1788
[ZSY][SCHED] warp 0 stalled at reconvergence pc at cycles 1789
[ZSY][SCHED] warp 0 stalled at reconvergence pc at cycles 1790
[ZSY][SCHED] warp 0 stalled at reconvergence pc at cycles 1791
[ZSY][SCHED] warp 0 stalled at reconvergence pc at cycles 1792
[ZSY][SCHED] warp 0 stalled at reconvergence pc at cycles 1793
[ZSY][SCHED] warp 0 stalled at reconvergence pc at cycles 1794
[ZSY][SCHED] warp 0 stalled at reconvergence pc at cycles 1795
[ZSY][SCHED] warp 0 stalled at reconvergence pc at cycles 1796
[ZSY][SCHED] warp 0 stalled at reconvergence pc at cycles 1797
[ZSY][SCHED] warp 0 stalled at reconvergence pc at cycles 1798
[ZSY][SCHED] warp 0 stalled at reconvergence pc at cycles 1799
[ZSY][SCHED] warp 0 stalled at reconvergence pc at cycles 1800
[ZSY][SCHED] warp 0 stalled at reconvergence pc at cycles 1801
[ZSY][SCHED] warp 0 stalled at reconvergence pc at cycles 1802
[ZSY][SCHED] warp 0 stalled at reconvergence pc at cycles 1803
[ZSY][SCHED] warp 0 stalled at reconvergence pc at cycles 1804
[ZSY][SCHED] warp 0 stalled at reconvergence pc at cycles 1805
[ZSY][SCHED] warp 0 stalled at reconvergence pc at cycles 1806
[ZSY][SCHED] warp 0 stalled at reconvergence pc at cycles 1807
[ZSY][SCHED] warp 0 stalled at reconvergence pc at cycles 1808
[ZSY][SCHED] warp 0 stalled at reconvergence pc at cycles 1809
[ZSY][SCHED] warp 0 stalled at reconvergence pc at cycles 1810
[ZSY][SCHED] warp 0 stalled at reconvergence pc at cycles 1811
[ZSY][SCHED] warp 0 stalled at reconvergence pc at cycles 1812
[ZSY][SCHED] warp 0 stalled at reconvergence pc at cycles 1813
[ZSY][SCHED] warp 0 stalled at reconvergence pc at cycles 1814
[ZSY][SCHED] warp 0 stalled at reconvergence pc at cycles 1815
[ZSY][SCHED] warp 0 stalled at reconvergence pc at cycles 1816
[ZSY][SCHED] warp 0 stalled at reconvergence pc at cycles 1817
[ZSY][SCHED] warp 0 stalled at reconvergence pc at cycles 1818
[ZSY][SCHED] warp 0 stalled at reconvergence pc at cycles 1819
[ZSY][SCHED] warp 0 stalled at reconvergence pc at cycles 1820
[ZSY][SCHED] warp 0 stalled at reconvergence pc at cycles 1821
[ZSY][SCHED] warp 0 stalled at reconvergence pc at cycles 1822
[ZSY][SCHED] warp 0 stalled at reconvergence pc at cycles 1823
[ZSY][SCHED] warp 0 stalled at reconvergence pc at cycles 1824
[ZSY][SCHED] warp 0 stalled at reconvergence pc at cycles 1825
[ZSY][SCHED] warp 0 stalled at reconvergence pc at cycles 1826
[ZSY][SCHED] warp 0 stalled at reconvergence pc at cycles 1827
[ZSY][SCHED] warp 0 stalled at reconvergence pc at cycles 1828
[ZSY][SCHED] warp 0 stalled at reconvergence pc at cycles 1829
[ZSY][SCHED] warp 0 stalled at reconvergence pc at cycles 1830
[ZSY][SCHED] warp 0 stalled at reconvergence pc at cycles 1831
[ZSY][SCHED] warp 0 stalled at reconvergence pc at cycles 1832
[ZSY][SCHED] warp 0 stalled at reconvergence pc at cycles 1833
[ZSY][SCHED] warp 0 stalled at reconvergence pc at cycles 1834
[ZSY][SCHED] warp 0 stalled at reconvergence pc at cycles 1835
[ZSY][SCHED] warp 0 stalled at reconvergence pc at cycles 1836
[ZSY][SCHED] warp 0 stalled at reconvergence pc at cycles 1837
[ZSY][SCHED] warp 0 stalled at reconvergence pc at cycles 1838
[ZSY][SCHED] warp 0 stalled at reconvergence pc at cycles 1839
[ZSY][SCHED] warp 0 stalled at reconvergence pc at cycles 1840
[ZSY][SCHED] warp 0 stalled at reconvergence pc at cycles 1841
[ZSY][SCHED] warp 0 stalled at reconvergence pc at cycles 1842
[ZSY][SCHED] warp 0 stalled at reconvergence pc at cycles 1843
[ZSY][SCHED] warp 0 stalled at reconvergence pc at cycles 1844
[ZSY][SCHED] warp 0 stalled at reconvergence pc at cycles 1845
[ZSY][SCHED] warp 0 stalled at reconvergence pc at cycles 1846
[ZSY][SCHED] warp 0 stalled at reconvergence pc at cycles 1847
[ZSY][SCHED] warp 0 stalled at reconvergence pc at cycles 1848
[ZSY][SCHED] warp 0 stalled at reconvergence pc at cycles 1849
[ZSY][SCHED] warp 0 stalled at reconvergence pc at cycles 1850
[ZSY][SCHED] warp 0 stalled at reconvergence pc at cycles 1851
[ZSY][SCHED] warp 0 stalled at reconvergence pc at cycles 1852
[ZSY][SCHED] warp 0 stalled at reconvergence pc at cycles 1853
[ZSY][SCHED] warp 0 stalled at reconvergence pc at cycles 1854
[ZSY][SCHED] warp 0 stalled at reconvergence pc at cycles 1855
[ZSY][SCHED] warp 0 stalled at reconvergence pc at cycles 1856
[ZSY][SCHED] warp 0 stalled at reconvergence pc at cycles 1857
[ZSY][SCHED] warp 0 stalled at reconvergence pc at cycles 1858
[ZSY][SCHED] warp 0 stalled at reconvergence pc at cycles 1859
[ZSY][SCHED] warp 0 stalled at reconvergence pc at cycles 1860
[ZSY][SCHED] warp 0 stalled at reconvergence pc at cycles 1861
[ZSY][SCHED] warp 0 stalled at reconvergence pc at cycles 1862
[ZSY][SCHED] warp 0 stalled at reconvergence pc at cycles 1863
[ZSY][SCHED] warp 0 stalled at reconvergence pc at cycles 1864
[ZSY][SCHED] warp 0 stalled at reconvergence pc at cycles 1865
[ZSY][SCHED] warp 0 stalled at reconvergence pc at cycles 1866
[ZSY][SCHED] warp 0 stalled at reconvergence pc at cycles 1867
[ZSY][SCHED] warp 0 stalled at reconvergence pc at cycles 1868
[ZSY][SCHED] warp 0 stalled at reconvergence pc at cycles 1869
[ZSY][SCHED] warp 0 stalled at reconvergence pc at cycles 1870
[ZSY][SCHED] warp 0 stalled at reconvergence pc at cycles 1871
[ZSY][SCHED] warp 0 stalled at reconvergence pc at cycles 1872
[ZSY][SCHED] warp 0 stalled at reconvergence pc at cycles 1873
[ZSY][SCHED] warp 0 stalled at reconvergence pc at cycles 1874
[ZSY][SCHED] warp 0 stalled at reconvergence pc at cycles 1875
[ZSY][SCHED] warp 0 stalled at reconvergence pc at cycles 1876
[ZSY][SCHED] warp 0 stalled at reconvergence pc at cycles 1877
[ZSY][SCHED] warp 0 stalled at reconvergence pc at cycles 1878
[ZSY][SCHED] warp 0 stalled at reconvergence pc at cycles 1879
[ZSY][SCHED] warp 0 stalled at reconvergence pc at cycles 1880
[ZSY][SCHED] warp 0 stalled at reconvergence pc at cycles 1881
[ZSY][SCHED] warp 0 stalled at reconvergence pc at cycles 1882
[ZSY][SCHED] warp 0 stalled at reconvergence pc at cycles 1883
[ZSY][SCHED] warp 0 stalled at reconvergence pc at cycles 1884
[ZSY][SCHED] warp 0 stalled at reconvergence pc at cycles 1885
[ZSY][SCHED] warp 0 stalled at reconvergence pc at cycles 1886
[ZSY][SCHED] warp 0 stalled at reconvergence pc at cycles 1887
[ZSY][SCHED] warp 0 stalled at reconvergence pc at cycles 1888
[ZSY][SCHED] warp 0 stalled at reconvergence pc at cycles 1889
[ZSY][SCHED] warp 0 stalled at reconvergence pc at cycles 1890
[ZSY][SCHED] warp 0 stalled at reconvergence pc at cycles 1891
[ZSY][SCHED] warp 0 stalled at reconvergence pc at cycles 1892
[ZSY][SCHED] warp 0 stalled at reconvergence pc at cycles 1893
[ZSY][SCHED] warp 0 stalled at reconvergence pc at cycles 1894
[ZSY][SCHED] warp 0 stalled at reconvergence pc at cycles 1895
[ZSY][SCHED] warp 0 stalled at reconvergence pc at cycles 1896
[ZSY][SCHED] warp 0 stalled at reconvergence pc at cycles 1897
[ZSY][SCHED] warp 0 stalled at reconvergence pc at cycles 1898
[ZSY][SCHED] warp 0 stalled at reconvergence pc at cycles 1899
[ZSY][SCHED] warp 0 stalled at reconvergence pc at cycles 1900
[ZSY][SCHED] warp 0 stalled at reconvergence pc at cycles 1901
[ZSY][SCHED] warp 0 stalled at reconvergence pc at cycles 1902
[ZSY][SCHED] warp 0 stalled at reconvergence pc at cycles 1903
[ZSY][SCHED] warp 0 stalled at reconvergence pc at cycles 1904
[ZSY][SCHED] warp 0 stalled at reconvergence pc at cycles 1905
[ZSY][SCHED] warp 0 stalled at reconvergence pc at cycles 1906
[ZSY][SCHED] warp 0 stalled at reconvergence pc at cycles 1907
[ZSY][SCHED] warp 0 stalled at reconvergence pc at cycles 1908
[ZSY][SCHED] warp 0 stalled at reconvergence pc at cycles 1909
[ZSY][SCHED] warp 0 stalled at reconvergence pc at cycles 1910
[ZSY][SCHED] warp 0 stalled at reconvergence pc at cycles 1911
[ZSY][SCHED] warp 0 stalled at reconvergence pc at cycles 1912
[ZSY][SCHED] warp 0 stalled at reconvergence pc at cycles 1913
[ZSY][SCHED] warp 0 stalled at reconvergence pc at cycles 1914
[ZSY][SCHED] warp 0 stalled at reconvergence pc at cycles 1915
[ZSY][SCHED] warp 0 stalled at reconvergence pc at cycles 1916
[ZSY][SCHED] warp 0 stalled at reconvergence pc at cycles 1917
[ZSY][SCHED] warp 0 stalled at reconvergence pc at cycles 1918
[ZSY][SCHED] warp 0 stalled at reconvergence pc at cycles 1919
[ZSY][SCHED] warp 0 stalled at reconvergence pc at cycles 1920
[ZSY][SCHED] warp 0 stalled at reconvergence pc at cycles 1921
[ZSY][SCHED] warp 0 stalled at reconvergence pc at cycles 1922
[ZSY][SCHED] warp 0 stalled at reconvergence pc at cycles 1923
[ZSY][SCHED] warp 0 stalled at reconvergence pc at cycles 1924
[ZSY][SCHED] warp 0 stalled at reconvergence pc at cycles 1925
[ZSY][SCHED] warp 0 stalled at reconvergence pc at cycles 1926
[ZSY][SCHED] warp 0 stalled at reconvergence pc at cycles 1927
[ZSY][SCHED] warp 0 stalled at reconvergence pc at cycles 1928
[ZSY][SCHED] warp 0 stalled at reconvergence pc at cycles 1929
[ZSY][SCHED] warp 0 stalled at reconvergence pc at cycles 1930
[ZSY][SCHED] warp 0 stalled at reconvergence pc at cycles 1931
[ZSY][SCHED] warp 0 stalled at reconvergence pc at cycles 1932
[ZSY][SCHED] warp 0 stalled at reconvergence pc at cycles 1933
[ZSY][SCHED] warp 0 stalled at reconvergence pc at cycles 1934
[ZSY][SCHED] warp 0 stalled at reconvergence pc at cycles 1935
[ZSY][SCHED] warp 0 stalled at reconvergence pc at cycles 1936
[ZSY][SCHED] warp 0 stalled at reconvergence pc at cycles 1937
[ZSY][SCHED] warp 0 stalled at reconvergence pc at cycles 1938
[ZSY][SCHED] warp 0 stalled at reconvergence pc at cycles 1939
[ZSY][SCHED] warp 0 stalled at reconvergence pc at cycles 1940
[ZSY][SCHED] warp 0 stalled at reconvergence pc at cycles 1941
[ZSY][SCHED] warp 0 stalled at reconvergence pc at cycles 1942
[ZSY][SCHED] warp 0 stalled at reconvergence pc at cycles 1943
[ZSY][SCHED] warp 0 stalled at reconvergence pc at cycles 1944
[ZSY][FETCH] warp 2 (original_warp_id = 0) fetch instructions(pc = 0x3f8) at cycle 1946 and hit
[ZSY][SCHED] warp 0 stalled at reconvergence pc at cycles 1947
[ZSY][SCHED] warp 0 stalled at reconvergence pc at cycles 1948
[ZSY][SCHED] warp 0 stalled at reconvergence pc at cycles 1949
[ZSY][SCHED] warp 0 stalled at reconvergence pc at cycles 1950
[ZSY][SCHED] warp 0 stalled at reconvergence pc at cycles 1951
[ZSY][SCHED] warp 0 stalled at reconvergence pc at cycles 1952
[ZSY][SCHED] warp 0 stalled at reconvergence pc at cycles 1954
[ZSY][SCHED] warp 0 stalled at reconvergence pc at cycles 1955
[ZSY][SCHED] warp 0 stalled at reconvergence pc at cycles 1956
[ZSY][SCHED] warp 0 stalled at reconvergence pc at cycles 1957
[ZSY][SCHED] warp 0 stalled at reconvergence pc at cycles 1958
[ZSY][SCHED] warp 0 stalled at reconvergence pc at cycles 1959
[ZSY][FETCH] warp 2 (original_warp_id = 0) fetch instructions(pc = 0x408) at cycle 1960 but miss
[ZSY][SCHED] warp 0 stalled at reconvergence pc at cycles 1961
[ZSY][SCHED] warp 0 stalled at reconvergence pc at cycles 1962
[ZSY][SCHED] warp 0 stalled at reconvergence pc at cycles 1963
[ZSY][SCHED] warp 0 stalled at reconvergence pc at cycles 1964
[ZSY][SCHED] warp 0 stalled at reconvergence pc at cycles 1965
[ZSY][SCHED] warp 0 stalled at reconvergence pc at cycles 1966
[ZSY][SCHED] warp 0 stalled at reconvergence pc at cycles 1967
[ZSY][SCHED] warp 0 stalled at reconvergence pc at cycles 1968
[ZSY][SCHED] warp 0 stalled at reconvergence pc at cycles 1969
[ZSY][SCHED] warp 0 stalled at reconvergence pc at cycles 1970
[ZSY][SCHED] warp 0 stalled at reconvergence pc at cycles 1971
[ZSY][SCHED] warp 0 stalled at reconvergence pc at cycles 1972
[ZSY][SCHED] warp 0 stalled at reconvergence pc at cycles 1973
[ZSY][SCHED] warp 0 stalled at reconvergence pc at cycles 1974
[ZSY][SCHED] warp 0 stalled at reconvergence pc at cycles 1975
[ZSY][SCHED] warp 0 stalled at reconvergence pc at cycles 1976
[ZSY][SCHED] warp 0 stalled at reconvergence pc at cycles 1977
[ZSY][SCHED] warp 0 stalled at reconvergence pc at cycles 1978
[ZSY][SCHED] warp 0 stalled at reconvergence pc at cycles 1979
[ZSY][SCHED] warp 0 stalled at reconvergence pc at cycles 1980
[ZSY][SCHED] warp 0 stalled at reconvergence pc at cycles 1981
[ZSY][SCHED] warp 0 stalled at reconvergence pc at cycles 1982
[ZSY][SCHED] warp 0 stalled at reconvergence pc at cycles 1983
[ZSY][SCHED] warp 0 stalled at reconvergence pc at cycles 1984
[ZSY][SCHED] warp 0 stalled at reconvergence pc at cycles 1985
[ZSY][SCHED] warp 0 stalled at reconvergence pc at cycles 1986
[ZSY][SCHED] warp 0 stalled at reconvergence pc at cycles 1987
[ZSY][SCHED] warp 0 stalled at reconvergence pc at cycles 1988
[ZSY][SCHED] warp 0 stalled at reconvergence pc at cycles 1989
[ZSY][SCHED] warp 0 stalled at reconvergence pc at cycles 1990
[ZSY][SCHED] warp 0 stalled at reconvergence pc at cycles 1991
[ZSY][FETCH] warp 1 (original_warp_id = 0) get hit response(pc = 0x208) at cycle 1991
[ZSY][SCHED] warp 0 stalled at reconvergence pc at cycles 1992
[ZSY][SCHED] warp 0 stalled at reconvergence pc at cycles 1993
[ZSY][SCHED] warp 0 stalled at reconvergence pc at cycles 1994
[ZSY][FETCH] warp 1 (original_warp_id = 0) fetch instructions(pc = 0x218) at cycle 1994 and hit
[ZSY][SCHED] warp 0 stalled at reconvergence pc at cycles 1995
[ZSY][SCHED] warp 0 stalled at reconvergence pc at cycles 1996
[ZSY][SCHED] warp 0 stalled at reconvergence pc at cycles 1997
[ZSY][SCHED] warp 0 stalled at reconvergence pc at cycles 1998
[ZSY][SCHED] warp 0 stalled at reconvergence pc at cycles 1999
[ZSY][SCHED] warp 0 stalled at reconvergence pc at cycles 2000
[ZSY][SCHED] warp 0 stalled at reconvergence pc at cycles 2001
[ZSY][SCHED] warp 0 stalled at reconvergence pc at cycles 2002
[ZSY][SCHED] warp 0 stalled at reconvergence pc at cycles 2003
[ZSY][SCHED] warp 0 stalled at reconvergence pc at cycles 2004
[ZSY][SCHED] warp 0 stalled at reconvergence pc at cycles 2005
[ZSY][SCHED] warp 0 stalled at reconvergence pc at cycles 2006
[ZSY][SCHED] warp 0 stalled at reconvergence pc at cycles 2007
[ZSY][SCHED] warp 0 stalled at reconvergence pc at cycles 2008
[ZSY][FETCH] warp 1 (original_warp_id = 0) fetch instructions(pc = 0x228) at cycle 2008 and hit
[ZSY][SCHED] warp 0 stalled at reconvergence pc at cycles 2009
[ZSY][SCHED] warp 0 stalled at reconvergence pc at cycles 2010
[ZSY][SCHED] warp 0 stalled at reconvergence pc at cycles 2011
[ZSY][SCHED] warp 0 stalled at reconvergence pc at cycles 2012
[ZSY][SCHED] warp 0 stalled at reconvergence pc at cycles 2013
[ZSY][SCHED] warp 0 stalled at reconvergence pc at cycles 2014
[ZSY][SCHED] warp 0 stalled at reconvergence pc at cycles 2015
[ZSY][SCHED] warp 0 stalled at reconvergence pc at cycles 2016
[ZSY][SCHED] warp 0 stalled at reconvergence pc at cycles 2017
[ZSY][SCHED] warp 0 stalled at reconvergence pc at cycles 2018
[ZSY][SCHED] warp 0 stalled at reconvergence pc at cycles 2019
[ZSY][SCHED] warp 0 stalled at reconvergence pc at cycles 2020
[ZSY][SCHED] warp 0 stalled at reconvergence pc at cycles 2021
[ZSY][SCHED] warp 0 stalled at reconvergence pc at cycles 2022
[ZSY][SCHED] warp 0 stalled at reconvergence pc at cycles 2023
[ZSY][SCHED] warp 0 stalled at reconvergence pc at cycles 2024
[ZSY][SCHED] warp 0 stalled at reconvergence pc at cycles 2025
[ZSY][SCHED] warp 0 stalled at reconvergence pc at cycles 2026
[ZSY][SCHED] warp 0 stalled at reconvergence pc at cycles 2027
[ZSY][SCHED] warp 0 stalled at reconvergence pc at cycles 2028
[ZSY][SCHED] warp 0 stalled at reconvergence pc at cycles 2029
[ZSY][SCHED] warp 0 stalled at reconvergence pc at cycles 2030
[ZSY][SCHED] warp 0 stalled at reconvergence pc at cycles 2031
[ZSY][SCHED] warp 0 stalled at reconvergence pc at cycles 2032
[ZSY][SCHED] warp 0 stalled at reconvergence pc at cycles 2033
[ZSY][SCHED] warp 0 stalled at reconvergence pc at cycles 2034
[ZSY][SCHED] warp 0 stalled at reconvergence pc at cycles 2035
[ZSY][SCHED] warp 0 stalled at reconvergence pc at cycles 2036
[ZSY][SCHED] warp 0 stalled at reconvergence pc at cycles 2037
[ZSY][SCHED] warp 0 stalled at reconvergence pc at cycles 2038
[ZSY][SCHED] warp 0 stalled at reconvergence pc at cycles 2039
[ZSY][SCHED] warp 0 stalled at reconvergence pc at cycles 2040
[ZSY][SCHED] warp 0 stalled at reconvergence pc at cycles 2041
[ZSY][SCHED] warp 0 stalled at reconvergence pc at cycles 2042
[ZSY][SCHED] warp 0 stalled at reconvergence pc at cycles 2043
[ZSY][SCHED] warp 0 stalled at reconvergence pc at cycles 2044
[ZSY][SCHED] warp 0 stalled at reconvergence pc at cycles 2045
[ZSY][SCHED] warp 0 stalled at reconvergence pc at cycles 2046
[ZSY][SCHED] warp 0 stalled at reconvergence pc at cycles 2047
[ZSY][SCHED] warp 0 stalled at reconvergence pc at cycles 2048
[ZSY][SCHED] warp 0 stalled at reconvergence pc at cycles 2049
[ZSY][SCHED] warp 0 stalled at reconvergence pc at cycles 2050
[ZSY][SCHED] warp 0 stalled at reconvergence pc at cycles 2051
[ZSY][SCHED] warp 0 stalled at reconvergence pc at cycles 2052
[ZSY][SCHED] warp 0 stalled at reconvergence pc at cycles 2053
[ZSY][SCHED] warp 0 stalled at reconvergence pc at cycles 2054
[ZSY][SCHED] warp 0 stalled at reconvergence pc at cycles 2055
[ZSY][SCHED] warp 0 stalled at reconvergence pc at cycles 2056
[ZSY][SCHED] warp 0 stalled at reconvergence pc at cycles 2057
[ZSY][SCHED] warp 0 stalled at reconvergence pc at cycles 2058
[ZSY][SCHED] warp 0 stalled at reconvergence pc at cycles 2059
[ZSY][SCHED] warp 0 stalled at reconvergence pc at cycles 2060
[ZSY][SCHED] warp 0 stalled at reconvergence pc at cycles 2061
[ZSY][SCHED] warp 0 stalled at reconvergence pc at cycles 2062
[ZSY][SCHED] warp 0 stalled at reconvergence pc at cycles 2063
[ZSY][SCHED] warp 0 stalled at reconvergence pc at cycles 2064
[ZSY][SCHED] warp 0 stalled at reconvergence pc at cycles 2065
[ZSY][SCHED] warp 0 stalled at reconvergence pc at cycles 2066
[ZSY][SCHED] warp 0 stalled at reconvergence pc at cycles 2067
[ZSY][SCHED] warp 0 stalled at reconvergence pc at cycles 2068
[ZSY][SCHED] warp 0 stalled at reconvergence pc at cycles 2069
[ZSY][SCHED] warp 0 stalled at reconvergence pc at cycles 2070
[ZSY][SCHED] warp 0 stalled at reconvergence pc at cycles 2071
[ZSY][SCHED] warp 0 stalled at reconvergence pc at cycles 2072
[ZSY][SCHED] warp 0 stalled at reconvergence pc at cycles 2073
[ZSY][SCHED] warp 0 stalled at reconvergence pc at cycles 2074
[ZSY][SCHED] warp 0 stalled at reconvergence pc at cycles 2075
[ZSY][SCHED] warp 0 stalled at reconvergence pc at cycles 2076
[ZSY][SCHED] warp 0 stalled at reconvergence pc at cycles 2077
[ZSY][SCHED] warp 0 stalled at reconvergence pc at cycles 2078
[ZSY][SCHED] warp 0 stalled at reconvergence pc at cycles 2079
[ZSY][SCHED] warp 0 stalled at reconvergence pc at cycles 2080
[ZSY][SCHED] warp 0 stalled at reconvergence pc at cycles 2081
[ZSY][SCHED] warp 0 stalled at reconvergence pc at cycles 2082
[ZSY][SCHED] warp 0 stalled at reconvergence pc at cycles 2083
[ZSY][SCHED] warp 0 stalled at reconvergence pc at cycles 2084
[ZSY][SCHED] warp 0 stalled at reconvergence pc at cycles 2085
[ZSY][SCHED] warp 0 stalled at reconvergence pc at cycles 2086
[ZSY][SCHED] warp 0 stalled at reconvergence pc at cycles 2087
[ZSY][SCHED] warp 0 stalled at reconvergence pc at cycles 2088
[ZSY][SCHED] warp 0 stalled at reconvergence pc at cycles 2089
[ZSY][SCHED] warp 0 stalled at reconvergence pc at cycles 2090
[ZSY][SCHED] warp 0 stalled at reconvergence pc at cycles 2091
[ZSY][SCHED] warp 0 stalled at reconvergence pc at cycles 2092
[ZSY][SCHED] warp 0 stalled at reconvergence pc at cycles 2093
[ZSY][SCHED] warp 0 stalled at reconvergence pc at cycles 2094
[ZSY][SCHED] warp 0 stalled at reconvergence pc at cycles 2095
[ZSY][SCHED] warp 0 stalled at reconvergence pc at cycles 2096
[ZSY][SCHED] warp 0 stalled at reconvergence pc at cycles 2097
[ZSY][SCHED] warp 0 stalled at reconvergence pc at cycles 2098
[ZSY][SCHED] warp 0 stalled at reconvergence pc at cycles 2099
[ZSY][SCHED] warp 0 stalled at reconvergence pc at cycles 2100
[ZSY][SCHED] warp 0 stalled at reconvergence pc at cycles 2101
[ZSY][SCHED] warp 0 stalled at reconvergence pc at cycles 2102
[ZSY][SCHED] warp 0 stalled at reconvergence pc at cycles 2103
[ZSY][SCHED] warp 0 stalled at reconvergence pc at cycles 2104
[ZSY][SCHED] warp 0 stalled at reconvergence pc at cycles 2105
[ZSY][SCHED] warp 0 stalled at reconvergence pc at cycles 2106
[ZSY][SCHED] warp 0 stalled at reconvergence pc at cycles 2107
[ZSY][SCHED] warp 0 stalled at reconvergence pc at cycles 2108
[ZSY][SCHED] warp 0 stalled at reconvergence pc at cycles 2109
[ZSY][SCHED] warp 0 stalled at reconvergence pc at cycles 2110
[ZSY][SCHED] warp 0 stalled at reconvergence pc at cycles 2111
[ZSY][SCHED] warp 0 stalled at reconvergence pc at cycles 2112
[ZSY][SCHED] warp 0 stalled at reconvergence pc at cycles 2113
[ZSY][SCHED] warp 0 stalled at reconvergence pc at cycles 2114
[ZSY][SCHED] warp 0 stalled at reconvergence pc at cycles 2115
[ZSY][SCHED] warp 0 stalled at reconvergence pc at cycles 2116
[ZSY][SCHED] warp 0 stalled at reconvergence pc at cycles 2117
[ZSY][SCHED] warp 0 stalled at reconvergence pc at cycles 2118
[ZSY][SCHED] warp 0 stalled at reconvergence pc at cycles 2119
[ZSY][SCHED] warp 0 stalled at reconvergence pc at cycles 2120
[ZSY][SCHED] warp 0 stalled at reconvergence pc at cycles 2121
[ZSY][SCHED] warp 0 stalled at reconvergence pc at cycles 2122
[ZSY][SCHED] warp 0 stalled at reconvergence pc at cycles 2123
[ZSY][SCHED] warp 0 stalled at reconvergence pc at cycles 2124
[ZSY][SCHED] warp 0 stalled at reconvergence pc at cycles 2125
[ZSY][SCHED] warp 0 stalled at reconvergence pc at cycles 2126
[ZSY][SCHED] warp 0 stalled at reconvergence pc at cycles 2127
[ZSY][SCHED] warp 0 stalled at reconvergence pc at cycles 2128
[ZSY][SCHED] warp 0 stalled at reconvergence pc at cycles 2129
[ZSY][SCHED] warp 0 stalled at reconvergence pc at cycles 2130
[ZSY][SCHED] warp 0 stalled at reconvergence pc at cycles 2131
[ZSY][SCHED] warp 0 stalled at reconvergence pc at cycles 2132
[ZSY][SCHED] warp 0 stalled at reconvergence pc at cycles 2133
[ZSY][SCHED] warp 0 stalled at reconvergence pc at cycles 2134
[ZSY][SCHED] warp 0 stalled at reconvergence pc at cycles 2135
[ZSY][SCHED] warp 0 stalled at reconvergence pc at cycles 2136
[ZSY][SCHED] warp 0 stalled at reconvergence pc at cycles 2137
[ZSY][SCHED] warp 0 stalled at reconvergence pc at cycles 2138
[ZSY][SCHED] warp 0 stalled at reconvergence pc at cycles 2139
[ZSY][SCHED] warp 0 stalled at reconvergence pc at cycles 2140
[ZSY][SCHED] warp 0 stalled at reconvergence pc at cycles 2141
[ZSY][SCHED] warp 0 stalled at reconvergence pc at cycles 2142
[ZSY][SCHED] warp 0 stalled at reconvergence pc at cycles 2143
[ZSY][SCHED] warp 0 stalled at reconvergence pc at cycles 2144
[ZSY][SCHED] warp 0 stalled at reconvergence pc at cycles 2145
[ZSY][SCHED] warp 0 stalled at reconvergence pc at cycles 2146
[ZSY][SCHED] warp 0 stalled at reconvergence pc at cycles 2147
[ZSY][SCHED] warp 0 stalled at reconvergence pc at cycles 2148
[ZSY][SCHED] warp 0 stalled at reconvergence pc at cycles 2149
[ZSY][SCHED] warp 0 stalled at reconvergence pc at cycles 2150
[ZSY][SCHED] warp 0 stalled at reconvergence pc at cycles 2151
[ZSY][SCHED] warp 0 stalled at reconvergence pc at cycles 2152
[ZSY][SCHED] warp 0 stalled at reconvergence pc at cycles 2153
[ZSY][SCHED] warp 0 stalled at reconvergence pc at cycles 2154
[ZSY][SCHED] warp 0 stalled at reconvergence pc at cycles 2155
[ZSY][SCHED] warp 0 stalled at reconvergence pc at cycles 2156
[ZSY][SCHED] warp 0 stalled at reconvergence pc at cycles 2157
[ZSY][SCHED] warp 0 stalled at reconvergence pc at cycles 2158
[ZSY][SCHED] warp 0 stalled at reconvergence pc at cycles 2159
[ZSY][SCHED] warp 0 stalled at reconvergence pc at cycles 2160
[ZSY][SCHED] warp 0 stalled at reconvergence pc at cycles 2161
[ZSY][SCHED] warp 0 stalled at reconvergence pc at cycles 2162
[ZSY][SCHED] warp 0 stalled at reconvergence pc at cycles 2163
[ZSY][SCHED] warp 0 stalled at reconvergence pc at cycles 2164
[ZSY][SCHED] warp 0 stalled at reconvergence pc at cycles 2165
[ZSY][SCHED] warp 0 stalled at reconvergence pc at cycles 2166
[ZSY][SCHED] warp 0 stalled at reconvergence pc at cycles 2167
[...]
dram[3]:     none      none      none      none      none      none      none      none      none      none      none      none      none      none      none      none  
dram[4]:     none      none      none      none      none      none      none      none      none      none      none      none      none      none      none      none  
dram[5]:     none      none      none      none      none      none      none      none      none      none      none      none      none      none      none      none  
maximum mf latency per bank:
dram[0]:        263         0         0         0         0         0         0         0         0         0         0         0         0         0         0         0
dram[1]:        178         0         0         0         0         0         0         0         0         0         0         0         0         0         0         0
dram[2]:          0         0         0         0         0         0         0         0         0         0         0         0         0         0         0         0
dram[3]:          0         0         0         0         0         0         0         0         0         0         0         0         0         0         0         0
dram[4]:          0         0         0         0         0         0         0         0         0         0         0         0         0         0         0         0
dram[5]:          0         0         0         0         0         0         0         0         0         0         0         0         0         0         0         0

Number of Memory Banks Accessed per Memory Operation per Warp (from 0):
0	0	0	0	0	0	0	0	0	0	0	0	0	0	0	0	0	0	0	0	0	0	0	0	0	0	0	0	0	0	0	0	0	0	0	0	0	0	0	0	0	0	0	0	0	0	0	0	0	0	0	0	0	0	0	0	0	0	0	0	0	0	0	0	0	0	0	0	0	0	0	0	0	0	0	0	0	0	0	0	0	0	0	0	0	0	0	0	0	0	0	0	0	0	0	0	
Average # of Memory Banks Accessed per Memory Operation per Warp=-nan

position of mrq chosen
0	0	0	0	0	0	0	0	0	0	0	0	0	0	0	0	0	0	0	0	0	0	0	0	0	0	0	0	0	0	0	0	0	0	0	0	0	0	0	0	0	0	0	0	0	0	0	0	0	0	0	0	0	0	0	0	0	0	0	0	0	0	0	0	

average position of mrq chosen = -nan
Memory Partition 0: 
Cache L2_bank_000:
MSHR contents

Cache L2_bank_001:
MSHR contents

In Dram Latency Queue (total = 0): 
DRAM[0]: 16 bks, busW=4 BL=8 CL=12, tRRD=6 tCCD=2, tRCD=12 tRAS=28 tRP=12 tRC=40
n_cmd=5779 n_nop=5764 n_act=3 n_pre=2 n_ref_event=94142351226304 n_req=10 n_rd=10 n_rd_L2_A=0 n_write=0 n_wr_bk=0 bw_util=0.003461
n_activity=144 dram_eff=0.1389
bk0: 10a 5705i bk1: 0a 5777i bk2: 0a 5777i bk3: 0a 5778i bk4: 0a 5778i bk5: 0a 5779i bk6: 0a 5779i bk7: 0a 5779i bk8: 0a 5779i bk9: 0a 5779i bk10: 0a 5779i bk11: 0a 5779i bk12: 0a 5779i bk13: 0a 5780i bk14: 0a 5780i bk15: 0a 5781i 

------------------------------------------------------------------------

Row_Buffer_Locality = 0.700000
Row_Buffer_Locality_read = 0.700000
Row_Buffer_Locality_write = -nan
Bank_Level_Parallism = 1.000000
Bank_Level_Parallism_Col = 0.672002
Bank_Level_Parallism_Ready = 1.000000
write_to_read_ratio_blp_rw_average = 0.000000
GrpLevelPara = 0.000000 

BW Util details:
bwutil = 0.003461 
total_CMD = 5779 
util_bw = 20 
Wasted_Col = 43 
Wasted_Row = 24 
Idle = 5692 

BW Util Bottlenecks: 
RCDc_limit = 36 
RCDWRc_limit = 0 
WTRc_limit = 0 
RTWc_limit = 0 
CCDLc_limit = 7 
rwq = 0 
CCDLc_limit_alone = 7 
WTRc_limit_alone = 0 
RTWc_limit_alone = 0 

Commands details: 
total_CMD = 5779 
n_nop = 5764 
Read = 10 
Write = 0 
L2_Alloc = 0 
L2_WB = 0 
n_act = 3 
n_pre = 2 
n_ref = 94142351226304 
n_req = 10 
total_req = 10 

Dual Bus Interface Util: 
issued_total_row = 5 
issued_total_col = 10 
Row_Bus_Util =  0.000865 
CoL_Bus_Util = 0.001730 
Either_Row_CoL_Bus_Util = 0.002596 
Issued_on_Two_Bus_Simul_Util = 0.000000 
issued_two_Eff = 0.000000 
queue_avg = 0.024399 


dram_util_bins: 0 0 0 0 0 0 0 0 0 0
dram_eff_bins: 0 0 0 0 0 0 0 0 0 0
mrqq: max=3 avg=0.0243987
Memory Partition 1: 
Cache L2_bank_002:
MSHR contents

Cache L2_bank_003:
MSHR contents

In Dram Latency Queue (total = 0): 
DRAM[1]: 16 bks, busW=4 BL=8 CL=12, tRRD=6 tCCD=2, tRCD=12 tRAS=28 tRP=12 tRC=40
n_cmd=5779 n_nop=5770 n_act=1 n_pre=0 n_ref_event=0 n_req=8 n_rd=8 n_rd_L2_A=0 n_write=0 n_wr_bk=0 bw_util=0.002769
n_activity=61 dram_eff=0.2623
bk0: 8a 5756i bk1: 0a 5779i bk2: 0a 5779i bk3: 0a 5779i bk4: 0a 5779i bk5: 0a 5779i bk6: 0a 5779i bk7: 0a 5779i bk8: 0a 5779i bk9: 0a 5779i bk10: 0a 5779i bk11: 0a 5779i bk12: 0a 5779i bk13: 0a 5779i bk14: 0a 5779i bk15: 0a 5779i 

------------------------------------------------------------------------

Row_Buffer_Locality = 0.875000
Row_Buffer_Locality_read = 0.875000
Row_Buffer_Locality_write = -nan
Bank_Level_Parallism = 1.000000
Bank_Level_Parallism_Col = 1.000000
Bank_Level_Parallism_Ready = 1.000000
write_to_read_ratio_blp_rw_average = 0.000000
GrpLevelPara = 1.000000 

BW Util details:
bwutil = 0.002769 
total_CMD = 5779 
util_bw = 16 
Wasted_Col = 18 
Wasted_Row = 0 
Idle = 5745 

BW Util Bottlenecks: 
RCDc_limit = 12 
RCDWRc_limit = 0 
WTRc_limit = 0 
RTWc_limit = 0 
CCDLc_limit = 6 
rwq = 0 
CCDLc_limit_alone = 6 
WTRc_limit_alone = 0 
RTWc_limit_alone = 0 

Commands details: 
total_CMD = 5779 
n_nop = 5770 
Read = 8 
Write = 0 
L2_Alloc = 0 
L2_WB = 0 
n_act = 1 
n_pre = 0 
n_ref = 0 
n_req = 8 
total_req = 8 

Dual Bus Interface Util: 
issued_total_row = 1 
issued_total_col = 8 
Row_Bus_Util =  0.000173 
CoL_Bus_Util = 0.001384 
Either_Row_CoL_Bus_Util = 0.001557 
Issued_on_Two_Bus_Simul_Util = 0.000000 
issued_two_Eff = 0.000000 
queue_avg = 0.007614 


dram_util_bins: 0 0 0 0 0 0 0 0 0 0
dram_eff_bins: 0 0 0 0 0 0 0 0 0 0
mrqq: max=3 avg=0.00761377
Memory Partition 2: 
Cache L2_bank_004:
MSHR contents

Cache L2_bank_005:
MSHR contents

In Dram Latency Queue (total = 0): 
DRAM[2]: 16 bks, busW=4 BL=8 CL=12, tRRD=6 tCCD=2, tRCD=12 tRAS=28 tRP=12 tRC=40
n_cmd=5779 n_nop=5770 n_act=1 n_pre=0 n_ref_event=0 n_req=8 n_rd=8 n_rd_L2_A=0 n_write=0 n_wr_bk=0 bw_util=0.002769
n_activity=61 dram_eff=0.2623
bk0: 8a 5755i bk1: 0a 5779i bk2: 0a 5779i bk3: 0a 5779i bk4: 0a 5779i bk5: 0a 5779i bk6: 0a 5779i bk7: 0a 5779i bk8: 0a 5779i bk9: 0a 5779i bk10: 0a 5779i bk11: 0a 5779i bk12: 0a 5779i bk13: 0a 5779i bk14: 0a 5779i bk15: 0a 5779i 

------------------------------------------------------------------------

Row_Buffer_Locality = 0.875000
Row_Buffer_Locality_read = 0.875000
Row_Buffer_Locality_write = -nan
Bank_Level_Parallism = 1.000000
Bank_Level_Parallism_Col = 1.000000
Bank_Level_Parallism_Ready = 1.000000
write_to_read_ratio_blp_rw_average = 0.000000
GrpLevelPara = 1.000000 

BW Util details:
bwutil = 0.002769 
total_CMD = 5779 
util_bw = 16 
Wasted_Col = 18 
Wasted_Row = 0 
Idle = 5745 

BW Util Bottlenecks: 
RCDc_limit = 12 
RCDWRc_limit = 0 
WTRc_limit = 0 
RTWc_limit = 0 
CCDLc_limit = 6 
rwq = 0 
CCDLc_limit_alone = 6 
WTRc_limit_alone = 0 
RTWc_limit_alone = 0 

Commands details: 
total_CMD = 5779 
n_nop = 5770 
Read = 8 
Write = 0 
L2_Alloc = 0 
L2_WB = 0 
n_act = 1 
n_pre = 0 
n_ref = 0 
n_req = 8 
total_req = 8 

Dual Bus Interface Util: 
issued_total_row = 1 
issued_total_col = 8 
Row_Bus_Util =  0.000173 
CoL_Bus_Util = 0.001384 
Either_Row_CoL_Bus_Util = 0.001557 
Issued_on_Two_Bus_Simul_Util = 0.000000 
issued_two_Eff = 0.000000 
queue_avg = 0.007787 


dram_util_bins: 0 0 0 0 0 0 0 0 0 0
dram_eff_bins: 0 0 0 0 0 0 0 0 0 0
mrqq: max=3 avg=0.00778681
Memory Partition 3: 
Cache L2_bank_006:
MSHR contents

Cache L2_bank_007:
MSHR contents

In Dram Latency Queue (total = 0): 
DRAM[3]: 16 bks, busW=4 BL=8 CL=12, tRRD=6 tCCD=2, tRCD=12 tRAS=28 tRP=12 tRC=40
n_cmd=5779 n_nop=5770 n_act=1 n_pre=0 n_ref_event=0 n_req=8 n_rd=8 n_rd_L2_A=0 n_write=0 n_wr_bk=0 bw_util=0.002769
n_activity=61 dram_eff=0.2623
bk0: 8a 5755i bk1: 0a 5779i bk2: 0a 5779i bk3: 0a 5779i bk4: 0a 5779i bk5: 0a 5779i bk6: 0a 5779i bk7: 0a 5779i bk8: 0a 5779i bk9: 0a 5779i bk10: 0a 5779i bk11: 0a 5779i bk12: 0a 5779i bk13: 0a 5779i bk14: 0a 5779i bk15: 0a 5779i 

------------------------------------------------------------------------

Row_Buffer_Locality = 0.875000
Row_Buffer_Locality_read = 0.875000
Row_Buffer_Locality_write = -nan
Bank_Level_Parallism = 1.000000
Bank_Level_Parallism_Col = 1.000000
Bank_Level_Parallism_Ready = 1.000000
write_to_read_ratio_blp_rw_average = 0.000000
GrpLevelPara = 1.000000 

BW Util details:
bwutil = 0.002769 
total_CMD = 5779 
util_bw = 16 
Wasted_Col = 18 
Wasted_Row = 0 
Idle = 5745 

BW Util Bottlenecks: 
RCDc_limit = 12 
RCDWRc_limit = 0 
WTRc_limit = 0 
RTWc_limit = 0 
CCDLc_limit = 6 
rwq = 0 
CCDLc_limit_alone = 6 
WTRc_limit_alone = 0 
RTWc_limit_alone = 0 

Commands details: 
total_CMD = 5779 
n_nop = 5770 
Read = 8 
Write = 0 
L2_Alloc = 0 
L2_WB = 0 
n_act = 1 
n_pre = 0 
n_ref = 0 
n_req = 8 
total_req = 8 

Dual Bus Interface Util: 
issued_total_row = 1 
issued_total_col = 8 
Row_Bus_Util =  0.000173 
CoL_Bus_Util = 0.001384 
Either_Row_CoL_Bus_Util = 0.001557 
Issued_on_Two_Bus_Simul_Util = 0.000000 
issued_two_Eff = 0.000000 
queue_avg = 0.007614 


dram_util_bins: 0 0 0 0 0 0 0 0 0 0
dram_eff_bins: 0 0 0 0 0 0 0 0 0 0
mrqq: max=3 avg=0.00761377
Memory Partition 4: 
Cache L2_bank_008:
MSHR contents

Cache L2_bank_009:
MSHR contents

In Dram Latency Queue (total = 0): 
DRAM[4]: 16 bks, busW=4 BL=8 CL=12, tRRD=6 tCCD=2, tRCD=12 tRAS=28 tRP=12 tRC=40
n_cmd=5779 n_nop=5770 n_act=1 n_pre=0 n_ref_event=0 n_req=8 n_rd=8 n_rd_L2_A=0 n_write=0 n_wr_bk=0 bw_util=0.002769
n_activity=61 dram_eff=0.2623
bk0: 8a 5755i bk1: 0a 5779i bk2: 0a 5779i bk3: 0a 5779i bk4: 0a 5779i bk5: 0a 5779i bk6: 0a 5779i bk7: 0a 5779i bk8: 0a 5779i bk9: 0a 5779i bk10: 0a 5779i bk11: 0a 5779i bk12: 0a 5779i bk13: 0a 5779i bk14: 0a 5779i bk15: 0a 5779i 

------------------------------------------------------------------------

Row_Buffer_Locality = 0.875000
Row_Buffer_Locality_read = 0.875000
Row_Buffer_Locality_write = -nan
Bank_Level_Parallism = 1.000000
Bank_Level_Parallism_Col = 1.000000
Bank_Level_Parallism_Ready = 1.000000
write_to_read_ratio_blp_rw_average = 0.000000
GrpLevelPara = 0.000000 

BW Util details:
bwutil = 0.002769 
total_CMD = 5779 
util_bw = 16 
Wasted_Col = 18 
Wasted_Row = 0 
Idle = 5745 

BW Util Bottlenecks: 
RCDc_limit = 12 
RCDWRc_limit = 0 
WTRc_limit = 0 
RTWc_limit = 0 
CCDLc_limit = 6 
rwq = 0 
CCDLc_limit_alone = 6 
WTRc_limit_alone = 0 
RTWc_limit_alone = 0 

Commands details: 
total_CMD = 5779 
n_nop = 5770 
Read = 8 
Write = 0 
L2_Alloc = 0 
L2_WB = 0 
n_act = 1 
n_pre = 0 
n_ref = 0 
n_req = 8 
total_req = 8 

Dual Bus Interface Util: 
issued_total_row = 1 
issued_total_col = 8 
Row_Bus_Util =  0.000173 
CoL_Bus_Util = 0.001384 
Either_Row_CoL_Bus_Util = 0.001557 
Issued_on_Two_Bus_Simul_Util = 0.000000 
issued_two_Eff = 0.000000 
queue_avg = 0.007614 


dram_util_bins: 0 0 0 0 0 0 0 0 0 0
dram_eff_bins: 0 0 0 0 0 0 0 0 0 0
mrqq: max=3 avg=0.00761377
Memory Partition 5: 
Cache L2_bank_010:
MSHR contents

Cache L2_bank_011:
MSHR contents

In Dram Latency Queue (total = 0): 
DRAM[5]: 16 bks, busW=4 BL=8 CL=12, tRRD=6 tCCD=2, tRCD=12 tRAS=28 tRP=12 tRC=40
n_cmd=5779 n_nop=5774 n_act=1 n_pre=0 n_ref_event=0 n_req=4 n_rd=4 n_rd_L2_A=0 n_write=0 n_wr_bk=0 bw_util=0.001384
n_activity=40 dram_eff=0.2
bk0: 4a 5761i bk1: 0a 5779i bk2: 0a 5779i bk3: 0a 5779i bk4: 0a 5779i bk5: 0a 5779i bk6: 0a 5779i bk7: 0a 5779i bk8: 0a 5779i bk9: 0a 5779i bk10: 0a 5779i bk11: 0a 5779i bk12: 0a 5779i bk13: 0a 5779i bk14: 0a 5779i bk15: 0a 5779i 

------------------------------------------------------------------------

Row_Buffer_Locality = 0.750000
Row_Buffer_Locality_read = 0.750000
Row_Buffer_Locality_write = -nan
Bank_Level_Parallism = 1.000000
Bank_Level_Parallism_Col = 1.000000
Bank_Level_Parallism_Ready = 1.000000
write_to_read_ratio_blp_rw_average = 0.000000
GrpLevelPara = 1.000000 

BW Util details:
bwutil = 0.001384 
total_CMD = 5779 
util_bw = 8 
Wasted_Col = 15 
Wasted_Row = 0 
Idle = 5756 

BW Util Bottlenecks: 
RCDc_limit = 12 
RCDWRc_limit = 0 
WTRc_limit = 0 
RTWc_limit = 0 
CCDLc_limit = 3 
rwq = 0 
CCDLc_limit_alone = 3 
WTRc_limit_alone = 0 
RTWc_limit_alone = 0 

Commands details: 
total_CMD = 5779 
n_nop = 5774 
Read = 4 
Write = 0 
L2_Alloc = 0 
L2_WB = 0 
n_act = 1 
n_pre = 0 
n_ref = 0 
n_req = 4 
total_req = 4 

Dual Bus Interface Util: 
issued_total_row = 1 
issued_total_col = 4 
Row_Bus_Util =  0.000173 
CoL_Bus_Util = 0.000692 
Either_Row_CoL_Bus_Util = 0.000865 
Issued_on_Two_Bus_Simul_Util = 0.000000 
issued_two_Eff = 0.000000 
queue_avg = 0.007268 


dram_util_bins: 0 0 0 0 0 0 0 0 0 0
dram_eff_bins: 0 0 0 0 0 0 0 0 0 0
mrqq: max=3 avg=0.00726769

========= L2 cache stats =========
L2_cache_bank[0]: Access = 14, Miss = 10, Miss_rate = 0.714, Pending_hits = 0, Reservation_fails = 0
L2_cache_bank[1]: Access = 0, Miss = 0, Miss_rate = -nan, Pending_hits = 0, Reservation_fails = 0
L2_cache_bank[2]: Access = 87, Miss = 13, Miss_rate = 0.149, Pending_hits = 0, Reservation_fails = 0
L2_cache_bank[3]: Access = 0, Miss = 0, Miss_rate = -nan, Pending_hits = 0, Reservation_fails = 0
L2_cache_bank[4]: Access = 8, Miss = 8, Miss_rate = 1.000, Pending_hits = 0, Reservation_fails = 0
L2_cache_bank[5]: Access = 0, Miss = 0, Miss_rate = -nan, Pending_hits = 0, Reservation_fails = 0
L2_cache_bank[6]: Access = 8, Miss = 8, Miss_rate = 1.000, Pending_hits = 0, Reservation_fails = 0
L2_cache_bank[7]: Access = 0, Miss = 0, Miss_rate = -nan, Pending_hits = 0, Reservation_fails = 0
L2_cache_bank[8]: Access = 8, Miss = 8, Miss_rate = 1.000, Pending_hits = 0, Reservation_fails = 0
L2_cache_bank[9]: Access = 0, Miss = 0, Miss_rate = -nan, Pending_hits = 0, Reservation_fails = 0
L2_cache_bank[10]: Access = 4, Miss = 4, Miss_rate = 1.000, Pending_hits = 0, Reservation_fails = 0
L2_cache_bank[11]: Access = 0, Miss = 0, Miss_rate = -nan, Pending_hits = 0, Reservation_fails = 0
L2_total_cache_accesses = 129
L2_total_cache_misses = 51
L2_total_cache_miss_rate = 0.3953
L2_total_cache_pending_hits = 0
L2_total_cache_reservation_fails = 0
L2_total_cache_breakdown:
	L2_cache_stats_breakdown[GLOBAL_ACC_R][HIT] = 48
	L2_cache_stats_breakdown[GLOBAL_ACC_R][HIT_RESERVED] = 0
	L2_cache_stats_breakdown[GLOBAL_ACC_R][MISS] = 0
	L2_cache_stats_breakdown[GLOBAL_ACC_R][RESERVATION_FAIL] = 0
	L2_cache_stats_breakdown[GLOBAL_ACC_R][SECTOR_MISS] = 0
	L2_cache_stats_breakdown[LOCAL_ACC_R][HIT] = 0
	L2_cache_stats_breakdown[LOCAL_ACC_R][HIT_RESERVED] = 0
	L2_cache_stats_breakdown[LOCAL_ACC_R][MISS] = 0
	L2_cache_stats_breakdown[LOCAL_ACC_R][RESERVATION_FAIL] = 0
	L2_cache_stats_breakdown[LOCAL_ACC_R][SECTOR_MISS] = 0
	L2_cache_stats_breakdown[CONST_ACC_R][HIT] = 0
	L2_cache_stats_breakdown[CONST_ACC_R][HIT_RESERVED] = 0
	L2_cache_stats_breakdown[CONST_ACC_R][MISS] = 1
	L2_cache_stats_breakdown[CONST_ACC_R][RESERVATION_FAIL] = 0
	L2_cache_stats_breakdown[CONST_ACC_R][SECTOR_MISS] = 1
	L2_cache_stats_breakdown[TEXTURE_ACC_R][HIT] = 0
	L2_cache_stats_breakdown[TEXTURE_ACC_R][HIT_RESERVED] = 0
	L2_cache_stats_breakdown[TEXTURE_ACC_R][MISS] = 0
	L2_cache_stats_breakdown[TEXTURE_ACC_R][RESERVATION_FAIL] = 0
	L2_cache_stats_breakdown[TEXTURE_ACC_R][SECTOR_MISS] = 0
	L2_cache_stats_breakdown[GLOBAL_ACC_W][HIT] = 30
	L2_cache_stats_breakdown[GLOBAL_ACC_W][HIT_RESERVED] = 0
	L2_cache_stats_breakdown[GLOBAL_ACC_W][MISS] = 1
	L2_cache_stats_breakdown[GLOBAL_ACC_W][RESERVATION_FAIL] = 0
	L2_cache_stats_breakdown[GLOBAL_ACC_W][SECTOR_MISS] = 4
	L2_cache_stats_breakdown[LOCAL_ACC_W][HIT] = 0
	L2_cache_stats_breakdown[LOCAL_ACC_W][HIT_RESERVED] = 0
	L2_cache_stats_breakdown[LOCAL_ACC_W][MISS] = 0
	L2_cache_stats_breakdown[LOCAL_ACC_W][RESERVATION_FAIL] = 0
	L2_cache_stats_breakdown[LOCAL_ACC_W][SECTOR_MISS] = 0
	L2_cache_stats_breakdown[L1_WRBK_ACC][HIT] = 0
	L2_cache_stats_breakdown[L1_WRBK_ACC][HIT_RESERVED] = 0
	L2_cache_stats_breakdown[L1_WRBK_ACC][MISS] = 0
	L2_cache_stats_breakdown[L1_WRBK_ACC][RESERVATION_FAIL] = 0
	L2_cache_stats_breakdown[L1_WRBK_ACC][SECTOR_MISS] = 0
	L2_cache_stats_breakdown[L2_WRBK_ACC][HIT] = 0
	L2_cache_stats_breakdown[L2_WRBK_ACC][HIT_RESERVED] = 0
	L2_cache_stats_breakdown[L2_WRBK_ACC][MISS] = 0
	L2_cache_stats_breakdown[L2_WRBK_ACC][RESERVATION_FAIL] = 0
	L2_cache_stats_breakdown[L2_WRBK_ACC][SECTOR_MISS] = 0
	L2_cache_stats_breakdown[INST_ACC_R][HIT] = 0
	L2_cache_stats_breakdown[INST_ACC_R][HIT_RESERVED] = 0
	L2_cache_stats_breakdown[INST_ACC_R][MISS] = 11
	L2_cache_stats_breakdown[INST_ACC_R][RESERVATION_FAIL] = 0
	L2_cache_stats_breakdown[INST_ACC_R][SECTOR_MISS] = 33
	L2_cache_stats_breakdown[L1_WR_ALLOC_R][HIT] = 0
	L2_cache_stats_breakdown[L1_WR_ALLOC_R][HIT_RESERVED] = 0
	L2_cache_stats_breakdown[L1_WR_ALLOC_R][MISS] = 0
	L2_cache_stats_breakdown[L1_WR_ALLOC_R][RESERVATION_FAIL] = 0
	L2_cache_stats_breakdown[L1_WR_ALLOC_R][SECTOR_MISS] = 0
	L2_cache_stats_breakdown[L2_WR_ALLOC_R][HIT] = 0
	L2_cache_stats_breakdown[L2_WR_ALLOC_R][HIT_RESERVED] = 0
	L2_cache_stats_breakdown[L2_WR_ALLOC_R][MISS] = 0
	L2_cache_stats_breakdown[L2_WR_ALLOC_R][RESERVATION_FAIL] = 0
	L2_cache_stats_breakdown[L2_WR_ALLOC_R][SECTOR_MISS] = 0
	L2_cache_stats_breakdown[GLOBAL_ACC_R][TOTAL_ACCESS] = 48
	L2_cache_stats_breakdown[CONST_ACC_R][TOTAL_ACCESS] = 2
	L2_cache_stats_breakdown[GLOBAL_ACC_W][TOTAL_ACCESS] = 35
	L2_cache_stats_breakdown[INST_ACC_R][TOTAL_ACCESS] = 44
L2_total_cache_reservation_fail_breakdown:
L2_cache_data_port_util = 0.001
L2_cache_fill_port_util = 0.001

icnt_total_pkts_mem_to_simt=129
icnt_total_pkts_simt_to_mem=59
LD_mem_lat_dist  0 0 0 0 0 0 0 0 0 0 0 0 0 0 0 0 0 0 0 0 0 0 0 0 0 0 0
ST_mem_lat_dist  0 0 0 0 0 0 0 0 0 0 0 0 0 0 0 0 0 0 0 0 0 0 0 0 0 0 0
----------------------------Interconnect-DETAILS--------------------------------
Class 0:
Packet latency average = 5.13529
	minimum = 5
	maximum = 8
Network latency average = 5.11765
	minimum = 5
	maximum = 8
Slowest packet = 20
Flit latency average = 5.01064
	minimum = 5
	maximum = 6
Slowest flit = 32
Fragmentation average = 0
	minimum = 0
	maximum = 0
Injected packet rate average = 0.00143784
	minimum = 0 (at node 1)
	maximum = 0.0198675 (at node 17)
Accepted packet rate average = 0.00143784
	minimum = 0 (at node 1)
	maximum = 0.0294588 (at node 0)
Injected flit rate average = 0.00159008
	minimum = 0 (at node 1)
	maximum = 0.0198675 (at node 17)
Accepted flit rate average= 0.00159008
	minimum = 0 (at node 1)
	maximum = 0.0294588 (at node 0)
Injected packet length average = 1.10588
Accepted packet length average = 1.10588
Total in-flight flits = 0 (0 measured)
====== Overall Traffic Statistics ======
====== Traffic class 0 ======
Packet latency average = 5.13529 (1 samples)
	minimum = 5 (1 samples)
	maximum = 8 (1 samples)
Network latency average = 5.11765 (1 samples)
	minimum = 5 (1 samples)
	maximum = 8 (1 samples)
Flit latency average = 5.01064 (1 samples)
	minimum = 5 (1 samples)
	maximum = 6 (1 samples)
Fragmentation average = 0 (1 samples)
	minimum = 0 (1 samples)
	maximum = 0 (1 samples)
Injected packet rate average = 0.00143784 (1 samples)
	minimum = 0 (1 samples)
	maximum = 0.0198675 (1 samples)
Accepted packet rate average = 0.00143784 (1 samples)
	minimum = 0 (1 samples)
	maximum = 0.0294588 (1 samples)
Injected flit rate average = 0.00159008 (1 samples)
	minimum = 0 (1 samples)
	maximum = 0.0198675 (1 samples)
Accepted flit rate average = 0.00159008 (1 samples)
	minimum = 0 (1 samples)
	maximum = 0.0294588 (1 samples)
Injected packet size average = 1.10588 (1 samples)
Accepted packet size average = 1.10588 (1 samples)
Hops average = 1 (1 samples)
----------------------------END-of-Interconnect-DETAILS-------------------------


gpgpu_simulation_time = 0 days, 0 hrs, 0 min, 1 sec (1 sec)
gpgpu_simulation_rate = 2528 (inst/sec)
gpgpu_simulation_rate = 4379 (cycle/sec)
gpgpu_silicon_slowdown = 159853x
Copy output data from CUDA device to the host memory
3000001 3000002 3000003 3000004 3000005 3000006 3000007 3000008 100429 100430 100431 100432 100433 100434 100435 100436 106037 106038 106039 106040 106041 106042 106043 106044 106045 106046 106047 106048 106049 106050 106051 106052 
Done
GPGPU-Sim: *** exit detected ***
